# File generated by Flopy version 3.3.5 on 12/08/2022 at 08:55:12.
BEGIN options
  BOUNDNAMES
  SAVE_FLOWS
  TS6  FILEIN  ea_4.ts
  TS6  FILEIN  ea_2.ts
  TS6  FILEIN  ea_6.ts
  TS6  FILEIN  ea_1.ts
  TS6  FILEIN  ea_5.ts
  TS6  FILEIN  ea_3.ts
  OBS6  FILEIN  MF6TBraat_cp.rch.obs
END options

BEGIN dimensions
  MAXBOUND  663
END dimensions

BEGIN period  1
  14 131087  ea_4  south
  15 133136  ea_4  south
  17 143323  ea_4  south
  16 143326  ea_4  south
  16 143327  ea_4  south
  16 143329  ea_4  south
  16 143331  ea_4  south
  16 143332  ea_4  south
  16 143333  ea_4  south
  16 143334  ea_4  south
  16 143335  ea_4  south
  16 143344  ea_4  south
  17 143345  ea_4  south
  16 143346  ea_4  south
  16 143347  ea_4  south
  16 143417  ea_4  south
  17 143419  ea_4  south
  16 143420  ea_4  south
  16 143425  ea_4  south
  17 143895  ea_4  south
  17 143898  ea_4  south
  17 143899  ea_4  south
  15 137790  ea_4  south
  17 143199  ea_4  south
  16 143201  ea_4  south
  16 143202  ea_4  south
  17 143204  ea_4  south
  17 143205  ea_4  south
  17 143210  ea_4  south
  17 143211  ea_4  south
  17 143213  ea_4  south
  17 143214  ea_4  south
  17 143215  ea_4  south
  17 143216  ea_4  south
  17 143217  ea_4  south
  17 143218  ea_4  south
  17 143219  ea_4  south
  17 143220  ea_4  south
  17 143221  ea_4  south
  17 143222  ea_4  south
  17 143223  ea_4  south
  16 143238  ea_4  south
  16 143239  ea_4  south
  16 143247  ea_4  south
  16 143249  ea_4  south
  16 143250  ea_4  south
  16 143251  ea_4  south
  16 143252  ea_4  south
  16 143253  ea_4  south
  16 143254  ea_4  south
  16 143257  ea_4  south
  17 143258  ea_4  south
  16 143259  ea_4  south
  16 143260  ea_4  south
  16 143261  ea_4  south
  16 143262  ea_4  south
  17 143263  ea_4  south
  16 143264  ea_4  south
  17 143265  ea_4  south
  16 143272  ea_4  south
  16 143302  ea_4  south
  16 143337  ea_4  south
  16 143342  ea_4  south
  16 143388  ea_4  south
  16 143390  ea_4  south
  16 143392  ea_4  south
  16 143393  ea_4  south
  16 143394  ea_4  south
  16 143463  ea_4  south
  16 143474  ea_4  south
  16 143511  ea_2  easts
  16 143525  ea_2  easts
  16 143527  ea_4  south
  16 143529  ea_2  easts
  16 143530  ea_2  easts
  16 143531  ea_2  easts
  16 143532  ea_2  easts
  16 143533  ea_2  easts
  16 143534  ea_2  easts
  16 143535  ea_2  easts
  16 143536  ea_2  easts
  16 143537  ea_2  easts
  16 143538  ea_2  easts
  16 143539  ea_2  easts
  16 143540  ea_2  easts
  16 143541  ea_2  easts
  16 143542  ea_2  easts
  16 143543  ea_2  easts
  16 143646  ea_2  easts
  16 143647  ea_2  easts
  16 143650  ea_2  easts
  16 143651  ea_2  easts
  16 143662  ea_2  easts
  16 143663  ea_2  easts
  16 143668  ea_2  easts
  16 143669  ea_2  easts
  16 143670  ea_2  easts
  16 143671  ea_2  easts
  16 143672  ea_2  easts
  16 143673  ea_2  easts
  16 143674  ea_2  easts
  16 143675  ea_2  easts
  16 143676  ea_2  easts
  16 143677  ea_2  easts
  16 143678  ea_2  easts
  16 143679  ea_2  easts
  16 143680  ea_2  easts
  16 143681  ea_2  easts
  16 143682  ea_2  easts
  16 143683  ea_2  easts
  16 143684  ea_2  easts
  16 143685  ea_2  easts
  16 143686  ea_2  easts
  16 143687  ea_2  easts
  16 143688  ea_2  easts
  16 143690  ea_2  easts
  16 143692  ea_2  easts
  16 143693  ea_2  easts
  16 143694  ea_2  easts
  16 143695  ea_2  easts
  16 143696  ea_2  easts
  16 143927  ea_4  south
  16 143930  ea_4  south
  16 143931  ea_4  south
  16 143937  ea_4  south
  16 143938  ea_4  south
  16 143939  ea_4  south
  16 143940  ea_4  south
  16 143941  ea_4  south
  16 143942  ea_4  south
  16 143943  ea_4  south
  16 143948  ea_4  south
  16 143949  ea_4  south
  16 143950  ea_4  south
  16 143951  ea_4  south
  16 143952  ea_4  south
  16 143953  ea_4  south
  16 143954  ea_4  south
  16 143955  ea_4  south
  16 143960  ea_4  south
  16 143961  ea_4  south
  16 143962  ea_4  south
  16 143963  ea_4  south
  16 143964  ea_4  south
  16 143965  ea_4  south
  16 143966  ea_4  south
  16 143967  ea_4  south
  16 143972  ea_2  easts
  16 143973  ea_2  easts
  16 143974  ea_2  easts
  16 143975  ea_2  easts
  16 143976  ea_2  easts
  16 143977  ea_2  easts
  16 143978  ea_2  easts
  16 143979  ea_2  easts
  16 143984  ea_2  easts
  16 143985  ea_2  easts
  16 143986  ea_2  easts
  16 143987  ea_2  easts
  16 143988  ea_2  easts
  16 143989  ea_2  easts
  16 143990  ea_2  easts
  16 143991  ea_2  easts
  16 143995  ea_2  easts
  16 143996  ea_2  easts
  16 143707  ea_2  easts
  16 143713  ea_2  easts
  16 143715  ea_2  easts
  16 143736  ea_2  easts
  16 143746  ea_2  easts
  16 144003  ea_2  easts
  16 144004  ea_2  easts
  16 143616  ea_2  easts
  16 143620  ea_2  easts
  16 143621  ea_2  easts
  16 143623  ea_2  easts
  16 143633  ea_2  easts
  16 143635  ea_2  easts
  16 143702  ea_2  easts
  16 143703  ea_2  easts
  16 143704  ea_2  easts
  16 143708  ea_2  easts
  16 143709  ea_2  easts
  16 143711  ea_2  easts
  16 143714  ea_2  easts
  16 144000  ea_2  easts
  13 127146  ea_4  south
  16 142599  ea_2  easts
  16 143732  ea_2  easts
  16 143733  ea_2  easts
  16 142450  ea_2  easts
  16 142451  ea_2  easts
  16 142523  ea_2  easts
  16 142528  ea_2  easts
  16 142529  ea_2  easts
  16 142530  ea_2  easts
  16 142532  ea_2  easts
  16 142533  ea_2  easts
  16 142539  ea_2  easts
  16 142540  ea_2  easts
  16 142542  ea_2  easts
  16 142545  ea_2  easts
  16 142547  ea_2  easts
  16 142549  ea_2  easts
  16 142557  ea_2  easts
  16 142558  ea_2  easts
  16 142559  ea_2  easts
  16 142560  ea_2  easts
  16 142561  ea_2  easts
  16 142562  ea_2  easts
  16 142563  ea_2  easts
  16 142572  ea_2  easts
  16 142573  ea_2  easts
  16 142574  ea_2  easts
  16 142579  ea_2  easts
  16 142580  ea_2  easts
  16 142581  ea_2  easts
  16 142582  ea_2  easts
  16 142584  ea_2  easts
  16 142585  ea_2  easts
  16 142586  ea_2  easts
  16 142592  ea_2  easts
  16 142602  ea_2  easts
  16 143612  ea_2  easts
  16 143618  ea_2  easts
  16 143619  ea_2  easts
  16 140745  ea_2  easts
  16 140746  ea_2  easts
  16 140750  ea_2  easts
  16 140751  ea_2  easts
  16 140764  ea_2  easts
  16 140765  ea_2  easts
  16 141597  ea_2  easts
  16 141601  ea_2  easts
  16 141602  ea_2  easts
  16 141603  ea_2  easts
  16 141604  ea_2  easts
  16 141619  ea_2  easts
  16 141620  ea_2  easts
  16 141622  ea_2  easts
  16 141624  ea_2  easts
  16 141634  ea_2  easts
  16 141635  ea_2  easts
  16 141636  ea_2  easts
  16 141640  ea_2  easts
  16 142295  ea_2  easts
  16 142302  ea_2  easts
  16 142309  ea_2  easts
  16 142317  ea_2  easts
  16 142318  ea_4  south
  16 142319  ea_2  easts
  16 142320  ea_2  easts
  16 142322  ea_2  easts
  16 142324  ea_2  easts
  16 142325  ea_2  easts
  16 142326  ea_2  easts
  16 142327  ea_2  easts
  16 142328  ea_2  easts
  16 142329  ea_2  easts
  16 142330  ea_2  easts
  16 142331  ea_2  easts
  16 142332  ea_2  easts
  16 142392  ea_2  easts
  16 142393  ea_2  easts
  16 142394  ea_2  easts
  16 142395  ea_2  easts
  16 142411  ea_2  easts
  16 142413  ea_2  easts
  16 142414  ea_2  easts
  16 142415  ea_2  easts
  16 142417  ea_2  easts
  16 142418  ea_2  easts
  16 142427  ea_2  easts
  16 142428  ea_2  easts
  16 142429  ea_2  easts
  16 142430  ea_2  easts
  16 142434  ea_2  easts
  16 142435  ea_2  easts
  16 142436  ea_2  easts
  16 142452  ea_2  easts
  16 142454  ea_2  easts
  16 142455  ea_2  easts
  16 142456  ea_2  easts
  16 142457  ea_2  easts
  16 142458  ea_2  easts
  16 142459  ea_2  easts
  16 142460  ea_2  easts
  16 142461  ea_2  easts
  16 142462  ea_2  easts
  16 142463  ea_2  easts
  16 142464  ea_2  easts
  16 142465  ea_2  easts
  16 142466  ea_2  easts
  16 142467  ea_2  easts
  16 142468  ea_2  easts
  16 142469  ea_2  easts
  16 142470  ea_2  easts
  16 142471  ea_2  easts
  16 142473  ea_2  easts
  16 142474  ea_2  easts
  16 142475  ea_2  easts
  16 142476  ea_2  easts
  16 142477  ea_2  easts
  16 142478  ea_2  easts
  16 142479  ea_2  easts
  16 142480  ea_2  easts
  16 142481  ea_2  easts
  16 142482  ea_2  easts
  16 142483  ea_2  easts
  16 142485  ea_2  easts
  16 142487  ea_2  easts
  16 142488  ea_2  easts
  16 142489  ea_2  easts
  16 142490  ea_2  easts
  16 142491  ea_2  easts
  16 142495  ea_2  easts
  16 142496  ea_2  easts
  16 142497  ea_2  easts
  16 142498  ea_2  easts
  16 142499  ea_2  easts
  16 142500  ea_2  easts
  16 142501  ea_2  easts
  16 142502  ea_2  easts
  16 142503  ea_2  easts
  16 142504  ea_2  easts
  16 142505  ea_2  easts
  16 142506  ea_2  easts
  16 142507  ea_2  easts
  16 142508  ea_2  easts
  16 142509  ea_2  easts
  16 142510  ea_2  easts
  16 142511  ea_2  easts
  16 142512  ea_2  easts
  16 142513  ea_2  easts
  16 142514  ea_2  easts
  16 142515  ea_2  easts
  16 142516  ea_2  easts
  16 142518  ea_2  easts
  16 142541  ea_2  easts
  16 142543  ea_2  easts
  16 143356  ea_4  south
  16 143357  ea_2  easts
  16 143358  ea_4  south
  16 143359  ea_2  easts
  16 143365  ea_2  easts
  16 143367  ea_2  easts
  16 143368  ea_2  easts
  16 143370  ea_2  easts
  16 143376  ea_2  easts
  16 143379  ea_2  easts
  16 143403  ea_2  easts
  16 143409  ea_2  easts
  16 143412  ea_2  easts
  16 143545  ea_2  easts
  16 143548  ea_2  easts
  16 143549  ea_2  easts
  16 143550  ea_2  easts
  16 143551  ea_2  easts
  16 143556  ea_2  easts
  16 143557  ea_2  easts
  16 143559  ea_2  easts
  16 143560  ea_2  easts
  16 143561  ea_2  easts
  16 143562  ea_2  easts
  16 143563  ea_2  easts
  16 143564  ea_2  easts
  16 143565  ea_2  easts
  16 143566  ea_2  easts
  16 143567  ea_2  easts
  16 143568  ea_2  easts
  16 143569  ea_2  easts
  16 143570  ea_2  easts
  16 143571  ea_2  easts
  16 143572  ea_2  easts
  16 143573  ea_2  easts
  16 143574  ea_2  easts
  16 143575  ea_2  easts
  16 143581  ea_2  easts
  16 143592  ea_2  easts
  16 143593  ea_2  easts
  16 143594  ea_2  easts
  16 143595  ea_2  easts
  16 143596  ea_2  easts
  16 143601  ea_2  easts
  16 143608  ea_2  easts
  16 143610  ea_2  easts
  16 143613  ea_2  easts
  16 138737  ea_2  easts
  16 138739  ea_2  easts
  16 139819  ea_2  easts
  16 139821  ea_2  easts
  16 139824  ea_2  easts
  16 140768  ea_2  easts
  16 142307  ea_4  south
  16 142310  ea_4  south
  16 142313  ea_4  south
  16 142653  ea_2  easts
  16 142654  ea_2  easts
  15 142655  ea_2  easts
  16 143804  ea_2  easts
  16 143806  ea_2  easts
  15 138822  ea_2  easts
  15 138833  ea_2  easts
  15 138834  ea_2  easts
  15 139852  ea_2  easts
  15 139854  ea_2  easts
  15 138826  ea_2  easts
  15 140827  ea_2  easts
  12 84064  ea_4  south
  15 141716  ea_2  easts
  15 141718  ea_2  easts
  15 139883  ea_2  easts
  15 137637  ea_2  easts
  15 137639  ea_2  easts
  15 137647  ea_2  easts
  15 137648  ea_2  easts
  15 138824  ea_2  easts
  15 138827  ea_2  easts
  15 136418  ea_2  easts
  15 136420  ea_2  easts
  15 137633  ea_2  easts
  15 137635  ea_2  easts
  15 137641  ea_2  easts
  15 137643  ea_2  easts
  16 143820  ea_2  easts
  15 140839  ea_2  easts
  15 136423  ea_2  easts
  15 136425  ea_2  easts
  15 136427  ea_2  easts
  15 136428  ea_2  easts
  15 136429  ea_2  easts
  10 21942  ea_6  wests
  15 140838  ea_2  easts
  12 70484  ea_4  south
  11 70485  ea_4  south
  15 136430  ea_2  easts
  15 136432  ea_2  easts
  15 136438  ea_2  easts
  15 137653  ea_2  easts
  15 138857  ea_2  easts
  15 139890  ea_2  easts
  10 59983  ea_4  south
  14 127031  ea_2  easts
  14 127043  ea_2  easts
  8 6459  ea_6  wests
  8 8290  ea_6  wests
  8 8292  ea_6  wests
  7 3727  ea_6  wests
  14 125436  ea_2  easts
  14 125437  ea_2  easts
  15 125438  ea_2  easts
  15 125439  ea_2  easts
  15 127050  ea_2  easts
  15 127051  ea_2  easts
  15 127052  ea_2  easts
  15 127053  ea_2  easts
  15 127054  ea_2  easts
  15 127066  ea_2  easts
  8 1669  ea_6  wests
  7 1670  ea_6  wests
  7 1677  ea_6  wests
  8 2094  ea_6  wests
  8 2098  ea_6  wests
  8 2099  ea_6  wests
  7 2106  ea_6  wests
  8 2673  ea_6  wests
  8 2675  ea_6  wests
  8 2676  ea_6  wests
  8 2685  ea_6  wests
  8 3711  ea_6  wests
  8 3713  ea_6  wests
  8 5015  ea_6  wests
  8 5017  ea_6  wests
  9 5020  ea_6  wests
  9 6439  ea_6  wests
  9 6440  ea_6  wests
  9 6445  ea_6  wests
  9 6446  ea_6  wests
  9 8278  ea_6  wests
  9 8280  ea_6  wests
  9 11230  ea_6  wests
  15 127080  ea_2  easts
  14 125465  ea_2  easts
  14 123977  ea_2  easts
  14 125467  ea_2  easts
  14 125468  ea_2  easts
  14 122680  ea_2  easts
  14 123970  ea_2  easts
  14 123972  ea_2  easts
  14 123973  ea_2  easts
  14 122684  ea_2  easts
  14 123974  ea_2  easts
  14 123994  ea_2  easts
  14 122672  ea_2  easts
  14 122675  ea_2  easts
  14 122677  ea_2  easts
  14 122678  ea_2  easts
  14 122679  ea_2  easts
  14 122681  ea_2  easts
  14 123969  ea_2  easts
  14 123971  ea_2  easts
  14 122700  ea_2  easts
  8 404  ea_6  wests
  8 471  ea_6  wests
  8 540  ea_6  wests
  8 543  ea_6  wests
  8 624  ea_6  wests
  8 713  ea_6  wests
  14 122704  ea_2  easts
  14 122705  ea_2  easts
  14 122706  ea_2  easts
  14 122724  ea_2  easts
  14 122726  ea_2  easts
  14 123983  ea_2  easts
  14 123986  ea_2  easts
  14 123987  ea_2  easts
  14 123998  ea_2  easts
  15 123999  ea_2  easts
  15 124000  ea_2  easts
  14 125486  ea_2  easts
  14 125488  ea_2  easts
  14 125491  ea_2  easts
  14 127097  ea_2  easts
  15 127100  ea_2  easts
  14 121474  ea_2  easts
  14 121475  ea_2  easts
  14 121512  ea_2  easts
  14 122690  ea_2  easts
  14 122693  ea_2  easts
  14 122694  ea_2  easts
  14 122696  ea_2  easts
  14 122707  ea_2  easts
  14 122709  ea_2  easts
  14 122715  ea_2  easts
  14 122716  ea_2  easts
  14 122725  ea_2  easts
  14 122723  ea_2  easts
  14 122728  ea_2  easts
  14 122729  ea_2  easts
  14 122730  ea_2  easts
  14 122731  ea_2  easts
  14 122735  ea_2  easts
  14 122741  ea_2  easts
  14 122742  ea_2  easts
  14 122743  ea_2  easts
  15 124001  ea_2  easts
  14 124002  ea_2  easts
  14 124003  ea_2  easts
  14 124004  ea_2  easts
  14 124005  ea_2  easts
  15 124007  ea_2  easts
  14 124009  ea_2  easts
  14 124010  ea_2  easts
  14 124011  ea_2  easts
  14 124012  ea_2  easts
  14 124013  ea_2  easts
  14 124014  ea_2  easts
  14 124015  ea_2  easts
  14 124016  ea_2  easts
  14 124017  ea_2  easts
  14 124019  ea_2  easts
  14 124020  ea_2  easts
  14 124021  ea_2  easts
  15 124022  ea_2  easts
  14 125477  ea_2  easts
  14 125478  ea_2  easts
  14 125479  ea_2  easts
  15 125481  ea_2  easts
  14 125482  ea_2  easts
  15 118566  ea_1  eastn
  15 120281  ea_1  eastn
  6 287  ea_5  westn
  8 14587  ea_3  north
  8 18063  ea_3  north
  8 18065  ea_3  north
  9 1621  ea_5  westn
  6 46  ea_5  westn
  8 903  ea_5  westn
  8 1021  ea_5  westn
  9 11153  ea_3  north
  6 62  ea_5  westn
  6 63  ea_5  westn
  6 64  ea_5  westn
  6 80  ea_5  westn
  6 81  ea_5  westn
  9 1624  ea_5  westn
  9 2035  ea_5  westn
  10 2040  ea_3  north
  10 2613  ea_3  north
  10 2614  ea_3  north
  10 2617  ea_3  north
  10 2618  ea_3  north
  10 2621  ea_3  north
  9 11136  ea_3  north
  5 2  ea_5  westn
  7 295  ea_5  westn
  7 335  ea_5  westn
  7 337  ea_5  westn
  7 388  ea_5  westn
  15 104948  ea_1  eastn
  15 108950  ea_1  eastn
  15 113188  ea_1  eastn
  15 113189  ea_1  eastn
  15 113190  ea_1  eastn
  15 113191  ea_1  eastn
  15 113196  ea_1  eastn
  15 113197  ea_1  eastn
  15 113199  ea_1  eastn
  15 113200  ea_1  eastn
  15 113206  ea_1  eastn
  15 113209  ea_1  eastn
  15 116172  ea_1  eastn
  15 116183  ea_1  eastn
  15 116184  ea_1  eastn
  15 116189  ea_1  eastn
  15 116191  ea_1  eastn
  15 116193  ea_1  eastn
  15 116194  ea_1  eastn
  15 116195  ea_1  eastn
  15 116196  ea_1  eastn
  15 116197  ea_1  eastn
  15 116198  ea_1  eastn
  15 116199  ea_1  eastn
  16 116200  ea_1  eastn
  15 116201  ea_1  eastn
  15 118567  ea_1  eastn
  15 118568  ea_1  eastn
  16 118573  ea_1  eastn
  16 118574  ea_1  eastn
  16 118575  ea_1  eastn
  16 120277  ea_1  eastn
  15 120278  ea_1  eastn
  6 22  ea_5  westn
  6 23  ea_5  westn
  5 25  ea_5  westn
  5 26  ea_5  westn
  5 27  ea_5  westn
  6 32  ea_5  westn
  6 33  ea_5  westn
  6 34  ea_5  westn
  5 41  ea_5  westn
  6 42  ea_5  westn
  6 43  ea_5  westn
  6 44  ea_5  westn
  6 45  ea_5  westn
  5 58  ea_5  westn
  5 59  ea_5  westn
  6 75  ea_5  westn
  5 94  ea_5  westn
  6 102  ea_5  westn
  7 153  ea_5  westn
  7 181  ea_5  westn
  7 182  ea_5  westn
  6 209  ea_5  westn
  6 210  ea_5  westn
  7 211  ea_5  westn
  7 212  ea_5  westn
  6 247  ea_5  westn
  11 2058  ea_3  north
  11 2059  ea_3  north
  8 343  ea_5  westn
  10 708  ea_5  westn
  12 2656  ea_3  north
END period  1

