# File generated by Flopy version 3.3.5 on 12/08/2022 at 08:55:12.
BEGIN options
END options

BEGIN continuous  FILEOUT  riv_obs.bsv
  west_guadalupe  riv  west_guadalupe
  canyon_lake  riv  canyon_lake
  cyp_creek2  riv  cyp_creek2
  eg_sms  riv  eg_sms
  onion_creek  riv  onion_creek
  east_guadalupe  riv  east_guadalupe
  pedernales  riv  pedernales
  san_marcos  riv  san_marcos
END continuous  FILEOUT  riv_obs.bsv

