# File generated by Flopy version 3.3.5 on 12/08/2022 at 08:55:12.
BEGIN options
END options

BEGIN continuous  FILEOUT  recharge_obs.bsv
  ea_4  rch  south
  ea_2  rch  easts
  ea_6  rch  wests
  ea_1  rch  eastn
  ea_5  rch  westn
  ea_3  rch  north
END continuous  FILEOUT  recharge_obs.bsv

