# File generated by Flopy version 3.3.5 on 01/10/2023 at 13:36:00.
BEGIN options
  BOUNDNAMES
  SAVE_FLOWS
  OBS6  FILEIN  MF6TBraat_cp.uzf.obs
  SIMULATE_GWSEEP
END options

BEGIN dimensions
  NUZFCELLS  15164
  NTRAILWAVES  7
  NWAVESETS  450
END dimensions

BEGIN packagedata
  1  16 139456  1  1       0.30000000     212.42804337       0.03000000       0.25000000       0.11000000       3.50000000  rr_31
  2  16 139457  1  1       0.30000000     212.42804337       0.03000000       0.25000000       0.11000000       3.50000000  rr_31
  3  16 139478  1  1       0.30000000     212.42804337       0.03000000       0.25000000       0.11000000       3.50000000  rr_31
  4  16 139479  1  1       0.30000000     212.42804337       0.03000000       0.25000000       0.11000000       3.50000000  rr_31
  5  16 139481  1  1       0.30000000     212.42804337       0.03000000       0.25000000       0.11000000       3.50000000  rr_31
  6  16 139484  1  1       0.30000000     212.42804337       0.03000000       0.25000000       0.11000000       3.50000000  rr_31
  7  16 139487  1  1       0.30000000     212.42804337       0.03000000       0.25000000       0.11000000       3.50000000  rr_31
  8  16 139490  1  1       0.30000000     212.42804337       0.03000000       0.25000000       0.11000000       3.50000000  rr_31
  9  16 139492  1  1       0.30000000     212.42804337       0.03000000       0.25000000       0.11000000       3.50000000  rr_31
  10  16 139493  1  1       0.30000000     212.42804337       0.03000000       0.25000000       0.11000000       3.50000000  rr_31
  11  16 139532  1  1       0.30000000     212.42804337       0.03000000       0.25000000       0.11000000       3.50000000  rr_31
  12  16 139533  1  1       0.30000000     212.42804337       0.03000000       0.25000000       0.11000000       3.50000000  rr_31
  13  16 139534  1  1       0.30000000     212.42804337       0.03000000       0.25000000       0.11000000       3.50000000  rr_31
  14  16 139535  1  1       0.30000000     212.42804337       0.03000000       0.25000000       0.11000000       3.50000000  rr_31
  15  16 139536  1  1       0.30000000     212.42804337       0.03000000       0.25000000       0.11000000       3.50000000  rr_31
  16  16 139538  1  1       0.30000000     212.42804337       0.03000000       0.25000000       0.11000000       3.50000000  rr_31
  17  16 139551  1  1       0.30000000     212.42804337       0.03000000       0.25000000       0.11000000       3.50000000  rr_31
  18  16 139554  1  1       0.30000000     212.42804337       0.03000000       0.25000000       0.11000000       3.50000000  rr_31
  19  16 139555  1  1       0.30000000     212.42804337       0.03000000       0.25000000       0.11000000       3.50000000  rr_31
  20  16 139557  1  1       0.30000000     212.42804337       0.03000000       0.25000000       0.11000000       3.50000000  rr_31
  21  16 139687  1  1       0.30000000     212.42804337       0.03000000       0.25000000       0.11000000       3.50000000  rr_31
  22  16 139689  1  1       0.30000000     212.42804337       0.03000000       0.25000000       0.11000000       3.50000000  rr_31
  23  16 139690  1  1       0.30000000     212.42804337       0.03000000       0.25000000       0.11000000       3.50000000  rr_31
  24  16 140239  1  1       0.30000000     212.42804337       0.03000000       0.25000000       0.11000000       3.50000000  rr_31
  25  16 140240  1  1       0.30000000     212.42804337       0.03000000       0.25000000       0.11000000       3.50000000  rr_31
  26  16 140283  1  1       0.30000000     212.42804337       0.03000000       0.25000000       0.11000000       3.50000000  rr_31
  27  16 140344  1  1       0.30000000     212.42804337       0.03000000       0.25000000       0.11000000       3.50000000  rr_31
  28  16 140346  1  1       0.30000000     212.42804337       0.03000000       0.25000000       0.11000000       3.50000000  rr_31
  29  16 140432  1  1       0.30000000     212.42804337       0.03000000       0.25000000       0.11000000       3.50000000  rr_31
  30  16 140434  1  1       0.30000000     212.42804337       0.03000000       0.25000000       0.11000000       3.50000000  rr_31
  31  16 140440  1  1       0.30000000     212.42804337       0.03000000       0.25000000       0.11000000       3.50000000  rr_31
  32  16 140442  1  1       0.30000000     212.42804337       0.03000000       0.25000000       0.11000000       3.50000000  rr_31
  33  16 140470  1  1       0.30000000     212.42804337       0.03000000       0.25000000       0.11000000       3.50000000  rr_31
  34  16 140471  1  1       0.30000000     212.42804337       0.03000000       0.25000000       0.11000000       3.50000000  rr_31
  35  16 140475  1  1       0.30000000     212.42804337       0.03000000       0.25000000       0.11000000       3.50000000  rr_31
  36  16 140476  1  1       0.30000000     212.42804337       0.03000000       0.25000000       0.11000000       3.50000000  rr_31
  37  16 140477  1  1       0.30000000     212.42804337       0.03000000       0.25000000       0.11000000       3.50000000  rr_31
  38  16 140485  1  1       0.30000000     212.42804337       0.03000000       0.25000000       0.11000000       3.50000000  rr_31
  39  16 140507  1  1       0.30000000     212.42804337       0.03000000       0.25000000       0.11000000       3.50000000  rr_31
  40  16 140509  1  1       0.30000000     212.42804337       0.03000000       0.25000000       0.11000000       3.50000000  rr_31
  41  16 140515  1  1       0.30000000     212.42804337       0.03000000       0.25000000       0.11000000       3.50000000  rr_31
  42  16 140517  1  1       0.30000000     212.42804337       0.03000000       0.25000000       0.11000000       3.50000000  rr_31
  43  16 140600  1  1       0.30000000     212.42804337       0.03000000       0.25000000       0.11000000       3.50000000  rr_31
  44  16 141188  1  1       0.30000000     212.42804337       0.03000000       0.25000000       0.11000000       3.50000000  rr_31
  45  16 141190  1  1       0.30000000     212.42804337       0.03000000       0.25000000       0.11000000       3.50000000  rr_31
  46  16 141197  1  1       0.30000000     212.42804337       0.03000000       0.25000000       0.11000000       3.50000000  rr_31
  47  16 141210  1  1       0.30000000     212.42804337       0.03000000       0.25000000       0.11000000       3.50000000  rr_31
  48  16 141212  1  1       0.30000000     212.42804337       0.03000000       0.25000000       0.11000000       3.50000000  rr_31
  49  16 141218  1  1       0.30000000     212.42804337       0.03000000       0.25000000       0.11000000       3.50000000  rr_31
  50  16 141223  1  1       0.30000000     212.42804337       0.03000000       0.25000000       0.11000000       3.50000000  rr_31
  51  16 141229  1  1       0.30000000     212.42804337       0.03000000       0.25000000       0.11000000       3.50000000  rr_31
  52  16 141230  1  1       0.30000000     212.42804337       0.03000000       0.25000000       0.11000000       3.50000000  rr_31
  53  16 141232  1  1       0.30000000     212.42804337       0.03000000       0.25000000       0.11000000       3.50000000  rr_31
  54  16 141318  1  1       0.30000000     212.42804337       0.03000000       0.25000000       0.11000000       3.50000000  rr_31
  55  16 141321  1  1       0.30000000     212.42804337       0.03000000       0.25000000       0.11000000       3.50000000  rr_31
  56  16 138213  1  1       0.30000000     212.42804337       0.03000000       0.25000000       0.11000000       3.50000000  rr_31
  57  16 138217  1  1       0.30000000     212.42804337       0.03000000       0.25000000       0.11000000       3.50000000  rr_31
  58  16 138218  1  1       0.30000000     212.42804337       0.03000000       0.25000000       0.11000000       3.50000000  rr_31
  59  16 138219  1  1       0.30000000     212.42804337       0.03000000       0.25000000       0.11000000       3.50000000  rr_31
  60  16 138220  1  1       0.30000000     212.42804337       0.03000000       0.25000000       0.11000000       3.50000000  rr_31
  61  16 138221  1  1       0.30000000     212.42804337       0.03000000       0.25000000       0.11000000       3.50000000  rr_31
  62  16 138222  1  1       0.30000000     212.42804337       0.03000000       0.25000000       0.11000000       3.50000000  rr_31
  63  16 138223  1  1       0.30000000     212.42804337       0.03000000       0.25000000       0.11000000       3.50000000  rr_31
  64  16 138224  1  1       0.30000000     212.42804337       0.03000000       0.25000000       0.11000000       3.50000000  rr_31
  65  16 138225  1  1       0.30000000     212.42804337       0.03000000       0.25000000       0.11000000       3.50000000  rr_31
  66  16 138226  1  1       0.30000000     212.42804337       0.03000000       0.25000000       0.11000000       3.50000000  rr_31
  67  16 138368  1  1       0.30000000     212.42804337       0.03000000       0.25000000       0.11000000       3.50000000  rr_31
  68  16 138369  1  1       0.30000000     212.42804337       0.03000000       0.25000000       0.11000000       3.50000000  rr_31
  69  16 138390  1  1       0.30000000     212.42804337       0.03000000       0.25000000       0.11000000       3.50000000  rr_31
  70  16 138391  1  1       0.30000000     212.42804337       0.03000000       0.25000000       0.11000000       3.50000000  rr_31
  71  16 138392  1  1       0.30000000     212.42804337       0.03000000       0.25000000       0.11000000       3.50000000  rr_31
  72  16 142174  1  1       0.30000000     212.42804337       0.03000000       0.25000000       0.11000000       3.50000000  rr_31
  73  16 142191  1  1       0.30000000     212.42804337       0.03000000       0.25000000       0.11000000       3.50000000  rr_31
  74  16 142195  1  1       0.30000000     212.42804337       0.03000000       0.25000000       0.11000000       3.50000000  rr_31
  75  16 142196  1  1       0.30000000     212.42804337       0.03000000       0.25000000       0.11000000       3.50000000  rr_31
  76  16 142198  1  1       0.30000000     212.42804337       0.03000000       0.25000000       0.11000000       3.50000000  rr_31
  77  16 142200  1  1       0.30000000     212.42804337       0.03000000       0.25000000       0.11000000       3.50000000  rr_31
  78  16 142201  1  1       0.30000000     212.42804337       0.03000000       0.25000000       0.11000000       3.50000000  rr_31
  79  16 142202  1  1       0.30000000     212.42804337       0.03000000       0.25000000       0.11000000       3.50000000  rr_31
  80  16 142204  1  1       0.30000000     212.42804337       0.03000000       0.25000000       0.11000000       3.50000000  rr_31
  81  16 142277  1  1       0.30000000     212.42804337       0.03000000       0.25000000       0.11000000       3.50000000  rr_31
  82  16 142278  1  1       0.30000000     212.42804337       0.03000000       0.25000000       0.11000000       3.50000000  rr_31
  83  16 142279  1  1       0.30000000     212.42804337       0.03000000       0.25000000       0.11000000       3.50000000  rr_31
  84  16 142284  1  1       0.30000000     212.42804337       0.03000000       0.25000000       0.11000000       3.50000000  rr_31
  85  16 142285  1  1       0.30000000     212.42804337       0.03000000       0.25000000       0.11000000       3.50000000  rr_31
  86  16 142286  1  1       0.30000000     212.42804337       0.03000000       0.25000000       0.11000000       3.50000000  rr_31
  87  16 142287  1  1       0.30000000     212.42804337       0.03000000       0.25000000       0.11000000       3.50000000  rr_31
  88  16 142288  1  1       0.30000000     212.42804337       0.03000000       0.25000000       0.11000000       3.50000000  rr_31
  89  16 133914  1  1       0.30000000      42.18420000       0.03000000       0.25000000       0.11000000       3.50000000  rr_10
  90  16 133917  1  1       0.30000000      42.18420000       0.03000000       0.25000000       0.11000000       3.50000000  rr_10
  91  16 133918  1  1       0.30000000      42.18420000       0.03000000       0.25000000       0.11000000       3.50000000  rr_10
  92  16 133929  1  1       0.30000000      42.18420000       0.03000000       0.25000000       0.11000000       3.50000000  rr_10
  93  16 133930  1  1       0.30000000      42.18420000       0.03000000       0.25000000       0.11000000       3.50000000  rr_10
  94  16 133932  1  1       0.30000000      42.18420000       0.03000000       0.25000000       0.11000000       3.50000000  rr_10
  95  16 133933  1  1       0.30000000      42.18420000       0.03000000       0.25000000       0.11000000       3.50000000  rr_10
  96  16 133934  1  1       0.30000000      42.18420000       0.03000000       0.25000000       0.11000000       3.50000000  rr_10
  97  16 135499  1  1       0.30000000      42.18420000       0.03000000       0.25000000       0.11000000       3.50000000  rr_10
  98  16 135505  1  1       0.30000000      42.18420000       0.03000000       0.25000000       0.11000000       3.50000000  rr_10
  99  16 135507  1  1       0.30000000      42.18420000       0.03000000       0.25000000       0.11000000       3.50000000  rr_10
  100  16 135529  1  1       0.30000000      42.18420000       0.03000000       0.25000000       0.11000000       3.50000000  rr_10
  101  16 135531  1  1       0.30000000      42.18420000       0.03000000       0.25000000       0.11000000       3.50000000  rr_10
  102  16 135537  1  1       0.30000000      42.18420000       0.03000000       0.25000000       0.11000000       3.50000000  rr_10
  103  16 135538  1  1       0.30000000      42.18420000       0.03000000       0.25000000       0.11000000       3.50000000  rr_10
  104  16 135539  1  1       0.30000000      42.18420000       0.03000000       0.25000000       0.11000000       3.50000000  rr_10
  105  16 135599  1  1       0.30000000     212.42804337       0.03000000       0.25000000       0.11000000       3.50000000  rr_31
  106  16 135600  1  1       0.30000000     212.42804337       0.03000000       0.25000000       0.11000000       3.50000000  rr_31
  107  16 135601  1  1       0.30000000      42.18420000       0.03000000       0.25000000       0.11000000       3.50000000  rr_10
  108  16 135621  1  1       0.30000000      42.18420000       0.03000000       0.25000000       0.11000000       3.50000000  rr_10
  109  16 135622  1  1       0.30000000      42.18420000       0.03000000       0.25000000       0.11000000       3.50000000  rr_10
  110  16 135623  1  1       0.30000000      42.18420000       0.03000000       0.25000000       0.11000000       3.50000000  rr_10
  111  16 135624  1  1       0.30000000      42.18420000       0.03000000       0.25000000       0.11000000       3.50000000  rr_10
  112  16 135625  1  1       0.30000000      42.18420000       0.03000000       0.25000000       0.11000000       3.50000000  rr_10
  113  16 135626  1  1       0.30000000      42.18420000       0.03000000       0.25000000       0.11000000       3.50000000  rr_10
  114  16 135627  1  1       0.30000000      42.18420000       0.03000000       0.25000000       0.11000000       3.50000000  rr_10
  115  16 135628  1  1       0.30000000      42.18420000       0.03000000       0.25000000       0.11000000       3.50000000  rr_10
  116  16 135630  1  1       0.30000000      42.18420000       0.03000000       0.25000000       0.11000000       3.50000000  rr_10
  117  16 135632  1  1       0.30000000      42.18420000       0.03000000       0.25000000       0.11000000       3.50000000  rr_10
  118  16 135644  1  1       0.30000000      42.18420000       0.03000000       0.25000000       0.11000000       3.50000000  rr_10
  119  16 135646  1  1       0.30000000      42.18420000       0.03000000       0.25000000       0.11000000       3.50000000  rr_10
  120  16 135647  1  1       0.30000000      42.18420000       0.03000000       0.25000000       0.11000000       3.50000000  rr_10
  121  16 135650  1  1       0.30000000      42.18420000       0.03000000       0.25000000       0.11000000       3.50000000  rr_10
  122  16 135651  1  1       0.30000000      42.18420000       0.03000000       0.25000000       0.11000000       3.50000000  rr_10
  123  16 135652  1  1       0.30000000      42.18420000       0.03000000       0.25000000       0.11000000       3.50000000  rr_10
  124  16 135654  1  1       0.30000000      42.18420000       0.03000000       0.25000000       0.11000000       3.50000000  rr_10
  125  16 135660  1  1       0.30000000      42.18420000       0.03000000       0.25000000       0.11000000       3.50000000  rr_10
  126  16 135661  1  1       0.30000000      42.18420000       0.03000000       0.25000000       0.11000000       3.50000000  rr_10
  127  16 135664  1  1       0.30000000      42.18420000       0.03000000       0.25000000       0.11000000       3.50000000  rr_10
  128  16 135665  1  1       0.30000000      42.18420000       0.03000000       0.25000000       0.11000000       3.50000000  rr_10
  129  16 135668  1  1       0.30000000      42.18420000       0.03000000       0.25000000       0.11000000       3.50000000  rr_10
  130  16 135669  1  1       0.30000000      42.18420000       0.03000000       0.25000000       0.11000000       3.50000000  rr_10
  131  16 135670  1  1       0.30000000      42.18420000       0.03000000       0.25000000       0.11000000       3.50000000  rr_10
  132  16 135671  1  1       0.30000000      42.18420000       0.03000000       0.25000000       0.11000000       3.50000000  rr_10
  133  16 135672  1  1       0.30000000      42.18420000       0.03000000       0.25000000       0.11000000       3.50000000  rr_10
  134  16 135673  1  1       0.30000000      42.18420000       0.03000000       0.25000000       0.11000000       3.50000000  rr_10
  135  16 135675  1  1       0.30000000      42.18420000       0.03000000       0.25000000       0.11000000       3.50000000  rr_10
  136  16 135676  1  1       0.30000000      42.18420000       0.03000000       0.25000000       0.11000000       3.50000000  rr_10
  137  16 135678  1  1       0.30000000      42.18420000       0.03000000       0.25000000       0.11000000       3.50000000  rr_10
  138  16 135684  1  1       0.30000000      42.18420000       0.03000000       0.25000000       0.11000000       3.50000000  rr_10
  139  16 135685  1  1       0.30000000      42.18420000       0.03000000       0.25000000       0.11000000       3.50000000  rr_10
  140  16 135686  1  1       0.30000000      42.18420000       0.03000000       0.25000000       0.11000000       3.50000000  rr_10
  141  16 135688  1  1       0.30000000      42.18420000       0.03000000       0.25000000       0.11000000       3.50000000  rr_10
  142  16 135689  1  1       0.30000000      42.18420000       0.03000000       0.25000000       0.11000000       3.50000000  rr_10
  143  16 135700  1  1       0.30000000      42.18420000       0.03000000       0.25000000       0.11000000       3.50000000  rr_10
  144  16 135702  1  1       0.30000000      42.18420000       0.03000000       0.25000000       0.11000000       3.50000000  rr_10
  145  16 135708  1  1       0.30000000      42.18420000       0.03000000       0.25000000       0.11000000       3.50000000  rr_10
  146  16 135710  1  1       0.30000000      42.18420000       0.03000000       0.25000000       0.11000000       3.50000000  rr_10
  147  16 135828  1  1       0.30000000      42.18420000       0.03000000       0.25000000       0.11000000       3.50000000  rr_10
  148  16 135829  1  1       0.30000000      42.18420000       0.03000000       0.25000000       0.11000000       3.50000000  rr_10
  149  16 135830  1  1       0.30000000      42.18420000       0.03000000       0.25000000       0.11000000       3.50000000  rr_10
  150  16 135831  1  1       0.30000000      42.18420000       0.03000000       0.25000000       0.11000000       3.50000000  rr_10
  151  16 135832  1  1       0.30000000      42.18420000       0.03000000       0.25000000       0.11000000       3.50000000  rr_10
  152  16 135833  1  1       0.30000000      42.18420000       0.03000000       0.25000000       0.11000000       3.50000000  rr_10
  153  16 135835  1  1       0.30000000      42.18420000       0.03000000       0.25000000       0.11000000       3.50000000  rr_10
  154  16 135841  1  1       0.30000000      42.18420000       0.03000000       0.25000000       0.11000000       3.50000000  rr_10
  155  16 135846  1  1       0.30000000      42.18420000       0.03000000       0.25000000       0.11000000       3.50000000  rr_10
  156  16 135852  1  1       0.30000000      42.18420000       0.03000000       0.25000000       0.11000000       3.50000000  rr_10
  157  16 135854  1  1       0.30000000      42.18420000       0.03000000       0.25000000       0.11000000       3.50000000  rr_10
  158  16 136835  1  1       0.30000000     212.42804337       0.03000000       0.25000000       0.11000000       3.50000000  rr_31
  159  16 136843  1  1       0.30000000     212.42804337       0.03000000       0.25000000       0.11000000       3.50000000  rr_31
  160  16 136845  1  1       0.30000000     212.42804337       0.03000000       0.25000000       0.11000000       3.50000000  rr_31
  161  16 136872  1  1       0.30000000     212.42804337       0.03000000       0.25000000       0.11000000       3.50000000  rr_31
  162  16 136878  1  1       0.30000000     212.42804337       0.03000000       0.25000000       0.11000000       3.50000000  rr_31
  163  16 136879  1  1       0.30000000     212.42804337       0.03000000       0.25000000       0.11000000       3.50000000  rr_31
  164  16 136881  1  1       0.30000000     212.42804337       0.03000000       0.25000000       0.11000000       3.50000000  rr_31
  165  16 136887  1  1       0.30000000      42.18420000       0.03000000       0.25000000       0.11000000       3.50000000  rr_10
  166  16 136898  1  1       0.30000000      42.18420000       0.03000000       0.25000000       0.11000000       3.50000000  rr_10
  167  16 136924  1  1       0.30000000     212.42804337       0.03000000       0.25000000       0.11000000       3.50000000  rr_31
  168  16 136933  1  1       0.30000000      42.18420000       0.03000000       0.25000000       0.11000000       3.50000000  rr_10
  169  16 136942  1  1       0.30000000      42.18420000       0.03000000       0.25000000       0.11000000       3.50000000  rr_10
  170  16 136943  1  1       0.30000000      42.18420000       0.03000000       0.25000000       0.11000000       3.50000000  rr_10
  171  16 137010  1  1       0.30000000     212.42804337       0.03000000       0.25000000       0.11000000       3.50000000  rr_31
  172  16 137011  1  1       0.30000000     212.42804337       0.03000000       0.25000000       0.11000000       3.50000000  rr_31
  173  16 137013  1  1       0.30000000     212.42804337       0.03000000       0.25000000       0.11000000       3.50000000  rr_31
  174  16 137016  1  1       0.30000000     212.42804337       0.03000000       0.25000000       0.11000000       3.50000000  rr_31
  175  16 137019  1  1       0.30000000     212.42804337       0.03000000       0.25000000       0.11000000       3.50000000  rr_31
  176  16 137022  1  1       0.30000000     212.42804337       0.03000000       0.25000000       0.11000000       3.50000000  rr_31
  177  16 137023  1  1       0.30000000     212.42804337       0.03000000       0.25000000       0.11000000       3.50000000  rr_31
  178  16 137024  1  1       0.30000000     212.42804337       0.03000000       0.25000000       0.11000000       3.50000000  rr_31
  179  16 137025  1  1       0.30000000     212.42804337       0.03000000       0.25000000       0.11000000       3.50000000  rr_31
  180  16 137047  1  1       0.30000000     212.42804337       0.03000000       0.25000000       0.11000000       3.50000000  rr_31
  181  16 137049  1  1       0.30000000     212.42804337       0.03000000       0.25000000       0.11000000       3.50000000  rr_31
  182  16 137060  1  1       0.30000000     212.42804337       0.03000000       0.25000000       0.11000000       3.50000000  rr_31
  183  16 137066  1  1       0.30000000     212.42804337       0.03000000       0.25000000       0.11000000       3.50000000  rr_31
  184  16 137067  1  1       0.30000000     212.42804337       0.03000000       0.25000000       0.11000000       3.50000000  rr_31
  185  16 137070  1  1       0.30000000     212.42804337       0.03000000       0.25000000       0.11000000       3.50000000  rr_31
  186  16 137071  1  1       0.30000000     212.42804337       0.03000000       0.25000000       0.11000000       3.50000000  rr_31
  187  16 137072  1  1       0.30000000     212.42804337       0.03000000       0.25000000       0.11000000       3.50000000  rr_31
  188  16 137073  1  1       0.30000000     212.42804337       0.03000000       0.25000000       0.11000000       3.50000000  rr_31
  189  16 137089  1  1       0.30000000      42.18420000       0.03000000       0.25000000       0.11000000       3.50000000  rr_10
  190  16 137090  1  1       0.30000000      42.18420000       0.03000000       0.25000000       0.11000000       3.50000000  rr_10
  191  16 137092  1  1       0.30000000      42.18420000       0.03000000       0.25000000       0.11000000       3.50000000  rr_10
  192  16 137093  1  1       0.30000000      42.18420000       0.03000000       0.25000000       0.11000000       3.50000000  rr_10
  193  16 137098  1  1       0.30000000      42.18420000       0.03000000       0.25000000       0.11000000       3.50000000  rr_10
  194  16 137099  1  1       0.30000000      42.18420000       0.03000000       0.25000000       0.11000000       3.50000000  rr_10
  195  16 137100  1  1       0.30000000      42.18420000       0.03000000       0.25000000       0.11000000       3.50000000  rr_10
  196  16 137109  1  1       0.30000000      42.18420000       0.03000000       0.25000000       0.11000000       3.50000000  rr_10
  197  16 137110  1  1       0.30000000      42.18420000       0.03000000       0.25000000       0.11000000       3.50000000  rr_10
  198  16 137111  1  1       0.30000000      42.18420000       0.03000000       0.25000000       0.11000000       3.50000000  rr_10
  199  16 137112  1  1       0.30000000      42.18420000       0.03000000       0.25000000       0.11000000       3.50000000  rr_10
  200  16 137122  1  1       0.30000000      42.18420000       0.03000000       0.25000000       0.11000000       3.50000000  rr_10
  201  16 137242  1  1       0.30000000     212.42804337       0.03000000       0.25000000       0.11000000       3.50000000  rr_31
  202  16 137244  1  1       0.30000000     212.42804337       0.03000000       0.25000000       0.11000000       3.50000000  rr_31
  203  16 137245  1  1       0.30000000     212.42804337       0.03000000       0.25000000       0.11000000       3.50000000  rr_31
  204  16 137248  1  1       0.30000000     212.42804337       0.03000000       0.25000000       0.11000000       3.50000000  rr_31
  205  16 137249  1  1       0.30000000     212.42804337       0.03000000       0.25000000       0.11000000       3.50000000  rr_31
  206  16 137260  1  1       0.30000000     212.42804337       0.03000000       0.25000000       0.11000000       3.50000000  rr_31
  207  16 138103  1  1       0.30000000     212.42804337       0.03000000       0.25000000       0.11000000       3.50000000  rr_31
  208  16 138106  1  1       0.30000000     212.42804337       0.03000000       0.25000000       0.11000000       3.50000000  rr_31
  209  16 138107  1  1       0.30000000     212.42804337       0.03000000       0.25000000       0.11000000       3.50000000  rr_31
  210  16 138118  1  1       0.30000000     212.42804337       0.03000000       0.25000000       0.11000000       3.50000000  rr_31
  211  16 138119  1  1       0.30000000     212.42804337       0.03000000       0.25000000       0.11000000       3.50000000  rr_31
  212  16 138120  1  1       0.30000000     212.42804337       0.03000000       0.25000000       0.11000000       3.50000000  rr_31
  213  16 138121  1  1       0.30000000     212.42804337       0.03000000       0.25000000       0.11000000       3.50000000  rr_31
  214  16 138127  1  1       0.30000000     212.42804337       0.03000000       0.25000000       0.11000000       3.50000000  rr_31
  215  16 138129  1  1       0.30000000     212.42804337       0.03000000       0.25000000       0.11000000       3.50000000  rr_31
  216  16 138130  1  1       0.30000000     212.42804337       0.03000000       0.25000000       0.11000000       3.50000000  rr_31
  217  16 138132  1  1       0.30000000     212.42804337       0.03000000       0.25000000       0.11000000       3.50000000  rr_31
  218  16 138154  1  1       0.30000000     212.42804337       0.03000000       0.25000000       0.11000000       3.50000000  rr_31
  219  16 138156  1  1       0.30000000     212.42804337       0.03000000       0.25000000       0.11000000       3.50000000  rr_31
  220  16 138157  1  1       0.30000000     212.42804337       0.03000000       0.25000000       0.11000000       3.50000000  rr_31
  221  16 138163  1  1       0.30000000     212.42804337       0.03000000       0.25000000       0.11000000       3.50000000  rr_31
  222  16 138200  1  1       0.30000000     212.42804337       0.03000000       0.25000000       0.11000000       3.50000000  rr_31
  223  16 138206  1  1       0.30000000     212.42804337       0.03000000       0.25000000       0.11000000       3.50000000  rr_31
  224  16 138207  1  1       0.30000000     212.42804337       0.03000000       0.25000000       0.11000000       3.50000000  rr_31
  225  16 138208  1  1       0.30000000     212.42804337       0.03000000       0.25000000       0.11000000       3.50000000  rr_31