BEGIN griddata
  strt  LAYERED
    INTERNAL  FACTOR  1.0
         596.59921369     596.71557280     596.73935380     596.31834154     596.51722928     597.69453421     596.76656630     595.67254503     597.09777294     597.32132743     596.45871051     595.23594213     596.53202208     596.84064539     596.18377527     593.12531365  1.00000000E+30  1.00000000E+30     595.05992513     587.73969630
         588.69909758     590.14448610  1.00000000E+30  1.00000000E+30     594.88480811     595.25098427     594.09408770     583.34775246     584.67719344  1.00000000E+30  1.00000000E+30  1.00000000E+30     591.94713581  1.00000000E+30  1.00000000E+30     594.54321203  1.00000000E+30  1.00000000E+30  1.00000000E+30     571.32656440
      1.00000000E+30     579.43223711     582.67802161     584.59365180  1.00000000E+30  1.00000000E+30  1.00000000E+30  1.00000000E+30  1.00000000E+30  1.00000000E+30     592.79653416  1.00000000E+30  1.00000000E+30  1.00000000E+30  1.00000000E+30  1.00000000E+30  1.00000000E+30  1.00000000E+30  1.00000000E+30  1.00000000E+30
      1.00000000E+30  1.00000000E+30  1.00000000E+30     583.15331045  1.00000000E+30  1.00000000E+30  1.00000000E+30  1.00000000E+30  1.00000000E+30     590.30568634  1.00000000E+30  1.00000000E+30  1.00000000E+30  1.00000000E+30  1.00000000E+30  1.00000000E+30  1.00000000E+30  1.00000000E+30  1.00000000E+30  1.00000000E+30
      1.00000000E+30  1.00000000E+30  1.00000000E+30  1.00000000E+30  1.00000000E+30  1.00000000E+30  1.00000000E+30  1.00000000E+30  1.00000000E+30  1.00000000E+30  1.00000000E+30  1.00000000E+30  1.00000000E+30  1.00000000E+30  1.00000000E+30     588.38591210     589.44586091     589.08633340  1.00000000E+30  1.00000000E+30
      1.00000000E+30  1.00000000E+30  1.00000000E+30  1.00000000E+30  1.00000000E+30  1.00000000E+30  1.00000000E+30  1.00000000E+30  1.00000000E+30     569.68667294  1.00000000E+30  1.00000000E+30     570.38355678  1.00000000E+30  1.00000000E+30  1.00000000E+30  1.00000000E+30  1.00000000E+30  1.00000000E+30  1.00000000E+30
      1.00000000E+30  1.00000000E+30  1.00000000E+30  1.00000000E+30  1.00000000E+30  1.00000000E+30  1.00000000E+30  1.00000000E+30  1.00000000E+30  1.00000000E+30  1.00000000E+30  1.00000000E+30  1.00000000E+30  1.00000000E+30  1.00000000E+30  1.00000000E+30  1.00000000E+30  1.00000000E+30  1.00000000E+30  1.00000000E+30
      1.00000000E+30  1.00000000E+30  1.00000000E+30  1.00000000E+30  1.00000000E+30  1.00000000E+30  1.00000000E+30  1.00000000E+30  1.00000000E+30  1.00000000E+30  1.00000000E+30  1.00000000E+30  1.00000000E+30  1.00000000E+30  1.00000000E+30  1.00000000E+30  1.00000000E+30  1.00000000E+30  1.00000000E+30  1.00000000E+30
         587.05007353     588.26376865  1.00000000E+30  1.00000000E+30  1.00000000E+30  1.00000000E+30  1.00000000E+30  1.00000000E+30  1.00000000E+30  1.00000000E+30  1.00000000E+30  1.00000000E+30  1.00000000E+30  1.00000000E+30  1.00000000E+30  1.00000000E+30  1.00000000E+30  1.00000000E+30  1.00000000E+30  1.00000000E+30
      1.00000000E+30  1.00000000E+30  1.00000000E+30  1.00000000E+30  1.00000000E+30  1.00000000E+30  1.00000000E+30  1.00000000E+30  1.00000000E+30  1.00000000E+30  1.00000000E+30  1.00000000E+30  1.00000000E+30  1.00000000E+30  1.00000000E+30  1.00000000E+30  1.00000000E+30  1.00000000E+30  1.00000000E+30  1.00000000E+30
      1.00000000E+30  1.00000000E+30  1.00000000E+30  1.00000000E+30  1.00000000E+30  1.00000000E+30  1.00000000E+30  1.00000000E+30  1.00000000E+30  1.00000000E+30  1.00000000E+30  1.00000000E+30  1.00000000E+30  1.00000000E+30  1.00000000E+30  1.00000000E+30  1.00000000E+30  1.00000000E+30  1.00000000E+30  1.00000000E+30
      1.00000000E+30  1.00000000E+30  1.00000000E+30  1.00000000E+30  1.00000000E+30     572.28446845  1.00000000E+30  1.00000000E+30  1.00000000E+30  1.00000000E+30  1.00000000E+30  1.00000000E+30  1.00000000E+30  1.00000000E+30     571.20476035  1.00000000E+30     574.17339920  1.00000000E+30  1.00000000E+30  1.00000000E+30
      1.00000000E+30  1.00000000E+30  1.00000000E+30  1.00000000E+30  1.00000000E+30  1.00000000E+30  1.00000000E+30  1.00000000E+30  1.00000000E+30  1.00000000E+30  1.00000000E+30  1.00000000E+30  1.00000000E+30  1.00000000E+30  1.00000000E+30  1.00000000E+30  1.00000000E+30  1.00000000E+30  1.00000000E+30  1.00000000E+30
      1.00000000E+30  1.00000000E+30  1.00000000E+30  1.00000000E+30  1.00000000E+30     580.42962432  1.00000000E+30     579.36324985  1.00000000E+30  1.00000000E+30  1.00000000E+30  1.00000000E+30  1.00000000E+30     548.19257108  1.00000000E+30  1.00000000E+30  1.00000000E+30  1.00000000E+30  1.00000000E+30  1.00000000E+30
      1.00000000E+30  1.00000000E+30  1.00000000E+30  1.00000000E+30  1.00000000E+30  1.00000000E+30  1.00000000E+30  1.00000000E+30  1.00000000E+30  1.00000000E+30  1.00000000E+30  1.00000000E+30  1.00000000E+30  1.00000000E+30  1.00000000E+30  1.00000000E+30  1.00000000E+30  1.00000000E+30  1.00000000E+30  1.00000000E+30
      1.00000000E+30  1.00000000E+30  1.00000000E+30  1.00000000E+30  1.00000000E+30  1.00000000E+30  1.00000000E+30  1.00000000E+30  1.00000000E+30  1.00000000E+30  1.00000000E+30  1.00000000E+30  1.00000000E+30  1.00000000E+30  1.00000000E+30  1.00000000E+30  1.00000000E+30  1.00000000E+30  1.00000000E+30  1.00000000E+30
      1.00000000E+30  1.00000000E+30  1.00000000E+30  1.00000000E+30  1.00000000E+30  1.00000000E+30  1.00000000E+30  1.00000000E+30  1.00000000E+30  1.00000000E+30  1.00000000E+30  1.00000000E+30  1.00000000E+30  1.00000000E+30  1.00000000E+30  1.00000000E+30  1.00000000E+30  1.00000000E+30  1.00000000E+30  1.00000000E+30
      1.00000000E+30  1.00000000E+30  1.00000000E+30  1.00000000E+30  1.00000000E+30  1.00000000E+30  1.00000000E+30  1.00000000E+30  1.00000000E+30  1.00000000E+30  1.00000000E+30  1.00000000E+30  1.00000000E+30  1.00000000E+30  1.00000000E+30  1.00000000E+30  1.00000000E+30  1.00000000E+30  1.00000000E+30  1.00000000E+30
      1.00000000E+30  1.00000000E+30  1.00000000E+30  1.00000000E+30  1.00000000E+30  1.00000000E+30  1.00000000E+30  1.00000000E+30  1.00000000E+30  1.00000000E+30  1.00000000E+30  1.00000000E+30  1.00000000E+30  1.00000000E+30  1.00000000E+30  1.00000000E+30  1.00000000E+30  1.00000000E+30  1.00000000E+30  1.00000000E+30
      1.00000000E+30  1.00000000E+30  1.00000000E+30  1.00000000E+30  1.00000000E+30  1.00000000E+30  1.00000000E+30  1.00000000E+30  1.00000000E+30  1.00000000E+30  1.00000000E+30  1.00000000E+30  1.00000000E+30  1.00000000E+30  1.00000000E+30  1.00000000E+30  1.00000000E+30  1.00000000E+30  1.00000000E+30  1.00000000E+30
      1.00000000E+30  1.00000000E+30  1.00000000E+30  1.00000000E+30  1.00000000E+30  1.00000000E+30  1.00000000E+30  1.00000000E+30  1.00000000E+30     581.15233685  1.00000000E+30     580.36889150  1.00000000E+30     582.41035974  1.00000000E+30  1.00000000E+30  1.00000000E+30  1.00000000E+30  1.00000000E+30  1.00000000E+30
      1.00000000E+30  1.00000000E+30  1.00000000E+30  1.00000000E+30  1.00000000E+30     547.66475285  1.00000000E+30  1.00000000E+30  1.00000000E+30  1.00000000E+30  1.00000000E+30  1.00000000E+30  1.00000000E+30  1.00000000E+30  1.00000000E+30  1.00000000E+30  1.00000000E+30  1.00000000E+30  1.00000000E+30  1.00000000E+30
      1.00000000E+30  1.00000000E+30  1.00000000E+30  1.00000000E+30  1.00000000E+30  1.00000000E+30  1.00000000E+30  1.00000000E+30  1.00000000E+30  1.00000000E+30  1.00000000E+30  1.00000000E+30  1.00000000E+30  1.00000000E+30  1.00000000E+30  1.00000000E+30  1.00000000E+30  1.00000000E+30  1.00000000E+30  1.00000000E+30
      1.00000000E+30  1.00000000E+30  1.00000000E+30  1.00000000E+30  1.00000000E+30  1.00000000E+30  1.00000000E+30  1.00000000E+30  1.00000000E+30  1.00000000E+30  1.00000000E+30  1.00000000E+30  1.00000000E+30  1.00000000E+30  1.00000000E+30  1.00000000E+30  1.00000000E+30  1.00000000E+30  1.00000000E+30  1.00000000E+30
      1.00000000E+30  1.00000000E+30  1.00000000E+30  1.00000000E+30  1.00000000E+30  1.00000000E+30  1.00000000E+30  1.00000000E+30  1.00000000E+30  1.00000000E+30  1.00000000E+30  1.00000000E+30  1.00000000E+30  1.00000000E+30  1.00000000E+30  1.00000000E+30  1.00000000E+30  1.00000000E+30  1.00000000E+30  1.00000000E+30
      1.00000000E+30  1.00000000E+30  1.00000000E+30  1.00000000E+30  1.00000000E+30  1.00000000E+30  1.00000000E+30  1.00000000E+30  1.00000000E+30  1.00000000E+30  1.00000000E+30  1.00000000E+30  1.00000000E+30  1.00000000E+30  1.00000000E+30  1.00000000E+30  1.00000000E+30  1.00000000E+30  1.00000000E+30  1.00000000E+30
      1.00000000E+30  1.00000000E+30  1.00000000E+30  1.00000000E+30  1.00000000E+30  1.00000000E+30  1.00000000E+30  1.00000000E+30  1.00000000E+30  1.00000000E+30  1.00000000E+30  1.00000000E+30  1.00000000E+30  1.00000000E+30  1.00000000E+30  1.00000000E+30  1.00000000E+30  1.00000000E+30  1.00000000E+30  1.00000000E+30
      1.00000000E+30  1.00000000E+30  1.00000000E+30  1.00000000E+30  1.00000000E+30  1.00000000E+30  1.00000000E+30  1.00000000E+30  1.00000000E+30  1.00000000E+30  1.00000000E+30  1.00000000E+30  1.00000000E+30  1.00000000E+30  1.00000000E+30  1.00000000E+30  1.00000000E+30     571.87895441  1.00000000E+30  1.00000000E+30
      1.00000000E+30  1.00000000E+30  1.00000000E+30  1.00000000E+30  1.00000000E+30  1.00000000E+30  1.00000000E+30  1.00000000E+30  1.00000000E+30  1.00000000E+30     572.51263704  1.00000000E+30  1.00000000E+30  1.00000000E+30     574.03956745  1.00000000E+30  1.00000000E+30     573.06739937  1.00000000E+30  1.00000000E+30
      1.00000000E+30  1.00000000E+30  1.00000000E+30     574.38167535  1.00000000E+30  1.00000000E+30  1.00000000E+30  1.00000000E+30  1.00000000E+30  1.00000000E+30     576.87870754     577.51968402  1.00000000E+30     575.99116866  1.00000000E+30     575.77873530     576.66004871  1.00000000E+30     576.42539802  1.00000000E+30
         578.58869101     579.64005451  1.00000000E+30     578.92058702     580.57582671  1.00000000E+30  1.00000000E+30  1.00000000E+30  1.00000000E+30  1.00000000E+30  1.00000000E+30  1.00000000E+30  1.00000000E+30  1.00000000E+30  1.00000000E+30  1.00000000E+30  1.00000000E+30  1.00000000E+30  1.00000000E+30  1.00000000E+30
      1.00000000E+30  1.00000000E+30  1.00000000E+30  1.00000000E+30  1.00000000E+30  1.00000000E+30  1.00000000E+30  1.00000000E+30  1.00000000E+30  1.00000000E+30  1.00000000E+30  1.00000000E+30  1.00000000E+30  1.00000000E+30  1.00000000E+30  1.00000000E+30  1.00000000E+30  1.00000000E+30  1.00000000E+30  1.00000000E+30
      1.00000000E+30  1.00000000E+30  1.00000000E+30  1.00000000E+30  1.00000000E+30  1.00000000E+30  1.00000000E+30  1.00000000E+30  1.00000000E+30  1.00000000E+30  1.00000000E+30  1.00000000E+30  1.00000000E+30  1.00000000E+30  1.00000000E+30  1.00000000E+30  1.00000000E+30  1.00000000E+30  1.00000000E+30  1.00000000E+30
      1.00000000E+30  1.00000000E+30  1.00000000E+30  1.00000000E+30  1.00000000E+30  1.00000000E+30  1.00000000E+30  1.00000000E+30  1.00000000E+30     545.28223320     545.66531541  1.00000000E+30  1.00000000E+30  1.00000000E+30  1.00000000E+30  1.00000000E+30  1.00000000E+30  1.00000000E+30  1.00000000E+30  1.00000000E+30
      1.00000000E+30  1.00000000E+30  1.00000000E+30  1.00000000E+30  1.00000000E+30  1.00000000E+30  1.00000000E+30  1.00000000E+30  1.00000000E+30  1.00000000E+30  1.00000000E+30  1.00000000E+30  1.00000000E+30  1.00000000E+30  1.00000000E+30  1.00000000E+30  1.00000000E+30  1.00000000E+30  1.00000000E+30  1.00000000E+30
      1.00000000E+30  1.00000000E+30  1.00000000E+30  1.00000000E+30  1.00000000E+30  1.00000000E+30  1.00000000E+30  1.00000000E+30  1.00000000E+30  1.00000000E+30  1.00000000E+30  1.00000000E+30  1.00000000E+30  1.00000000E+30  1.00000000E+30  1.00000000E+30  1.00000000E+30  1.00000000E+30  1.00000000E+30  1.00000000E+30
      1.00000000E+30  1.00000000E+30  1.00000000E+30  1.00000000E+30  1.00000000E+30  1.00000000E+30  1.00000000E+30  1.00000000E+30  1.00000000E+30  1.00000000E+30  1.00000000E+30  1.00000000E+30  1.00000000E+30  1.00000000E+30  1.00000000E+30  1.00000000E+30  1.00000000E+30  1.00000000E+30  1.00000000E+30  1.00000000E+30
      1.00000000E+30  1.00000000E+30  1.00000000E+30  1.00000000E+30  1.00000000E+30  1.00000000E+30  1.00000000E+30  1.00000000E+30  1.00000000E+30  1.00000000E+30  1.00000000E+30  1.00000000E+30  1.00000000E+30  1.00000000E+30  1.00000000E+30  1.00000000E+30  1.00000000E+30  1.00000000E+30  1.00000000E+30  1.00000000E+30
      1.00000000E+30  1.00000000E+30  1.00000000E+30  1.00000000E+30  1.00000000E+30  1.00000000E+30  1.00000000E+30  1.00000000E+30  1.00000000E+30  1.00000000E+30  1.00000000E+30  1.00000000E+30  1.00000000E+30  1.00000000E+30  1.00000000E+30  1.00000000E+30  1.00000000E+30  1.00000000E+30  1.00000000E+30  1.00000000E+30
      1.00000000E+30  1.00000000E+30  1.00000000E+30  1.00000000E+30  1.00000000E+30  1.00000000E+30  1.00000000E+30  1.00000000E+30  1.00000000E+30  1.00000000E+30  1.00000000E+30  1.00000000E+30  1.00000000E+30  1.00000000E+30  1.00000000E+30  1.00000000E+30  1.00000000E+30  1.00000000E+30  1.00000000E+30  1.00000000E+30
      1.00000000E+30  1.00000000E+30  1.00000000E+30  1.00000000E+30  1.00000000E+30  1.00000000E+30  1.00000000E+30  1.00000000E+30  1.00000000E+30  1.00000000E+30  1.00000000E+30  1.00000000E+30  1.00000000E+30  1.00000000E+30  1.00000000E+30  1.00000000E+30  1.00000000E+30  1.00000000E+30  1.00000000E+30  1.00000000E+30
      1.00000000E+30  1.00000000E+30  1.00000000E+30  1.00000000E+30  1.00000000E+30  1.00000000E+30  1.00000000E+30  1.00000000E+30  1.00000000E+30  1.00000000E+30  1.00000000E+30  1.00000000E+30  1.00000000E+30  1.00000000E+30  1.00000000E+30  1.00000000E+30  1.00000000E+30  1.00000000E+30  1.00000000E+30  1.00000000E+30
      1.00000000E+30  1.00000000E+30  1.00000000E+30  1.00000000E+30  1.00000000E+30  1.00000000E+30  1.00000000E+30  1.00000000E+30  1.00000000E+30  1.00000000E+30  1.00000000E+30  1.00000000E+30  1.00000000E+30  1.00000000E+30  1.00000000E+30  1.00000000E+30  1.00000000E+30  1.00000000E+30  1.00000000E+30  1.00000000E+30
      1.00000000E+30  1.00000000E+30  1.00000000E+30  1.00000000E+30  1.00000000E+30  1.00000000E+30  1.00000000E+30  1.00000000E+30  1.00000000E+30  1.00000000E+30  1.00000000E+30  1.00000000E+30  1.00000000E+30  1.00000000E+30  1.00000000E+30  1.00000000E+30  1.00000000E+30  1.00000000E+30  1.00000000E+30  1.00000000E+30
      1.00000000E+30  1.00000000E+30  1.00000000E+30  1.00000000E+30  1.00000000E+30  1.00000000E+30  1.00000000E+30  1.00000000E+30  1.00000000E+30  1.00000000E+30  1.00000000E+30  1.00000000E+30  1.00000000E+30  1.00000000E+30  1.00000000E+30  1.00000000E+30  1.00000000E+30  1.00000000E+30  1.00000000E+30  1.00000000E+30
      1.00000000E+30  1.00000000E+30  1.00000000E+30  1.00000000E+30  1.00000000E+30  1.00000000E+30  1.00000000E+30  1.00000000E+30  1.00000000E+30  1.00000000E+30  1.00000000E+30  1.00000000E+30  1.00000000E+30  1.00000000E+30  1.00000000E+30  1.00000000E+30  1.00000000E+30  1.00000000E+30  1.00000000E+30  1.00000000E+30
      1.00000000E+30  1.00000000E+30  1.00000000E+30  1.00000000E+30  1.00000000E+30  1.00000000E+30  1.00000000E+30  1.00000000E+30  1.00000000E+30  1.00000000E+30  1.00000000E+30  1.00000000E+30  1.00000000E+30  1.00000000E+30  1.00000000E+30  1.00000000E+30  1.00000000E+30  1.00000000E+30  1.00000000E+30  1.00000000E+30
         574.15209277  1.00000000E+30  1.00000000E+30  1.00000000E+30  1.00000000E+30  1.00000000E+30  1.00000000E+30  1.00000000E+30  1.00000000E+30  1.00000000E+30  1.00000000E+30  1.00000000E+30     575.52255671  1.00000000E+30  1.00000000E+30     576.15923373  1.00000000E+30  1.00000000E+30  1.00000000E+30  1.00000000E+30
      1.00000000E+30  1.00000000E+30  1.00000000E+30  1.00000000E+30  1.00000000E+30  1.00000000E+30  1.00000000E+30  1.00000000E+30  1.00000000E+30  1.00000000E+30  1.00000000E+30  1.00000000E+30  1.00000000E+30  1.00000000E+30     536.53771972     535.41735231  1.00000000E+30  1.00000000E+30  1.00000000E+30  1.00000000E+30
      1.00000000E+30  1.00000000E+30     536.59699300     536.65631304  1.00000000E+30  1.00000000E+30  1.00000000E+30  1.00000000E+30  1.00000000E+30  1.00000000E+30  1.00000000E+30  1.00000000E+30  1.00000000E+30  1.00000000E+30  1.00000000E+30  1.00000000E+30  1.00000000E+30  1.00000000E+30  1.00000000E+30  1.00000000E+30
      1.00000000E+30  1.00000000E+30  1.00000000E+30  1.00000000E+30  1.00000000E+30  1.00000000E+30  1.00000000E+30  1.00000000E+30  1.00000000E+30  1.00000000E+30  1.00000000E+30  1.00000000E+30  1.00000000E+30  1.00000000E+30  1.00000000E+30  1.00000000E+30  1.00000000E+30  1.00000000E+30  1.00000000E+30  1.00000000E+30
      1.00000000E+30  1.00000000E+30  1.00000000E+30  1.00000000E+30  1.00000000E+30  1.00000000E+30  1.00000000E+30  1.00000000E+30  1.00000000E+30  1.00000000E+30  1.00000000E+30  1.00000000E+30  1.00000000E+30  1.00000000E+30  1.00000000E+30  1.00000000E+30  1.00000000E+30  1.00000000E+30  1.00000000E+30  1.00000000E+30
      1.00000000E+30  1.00000000E+30  1.00000000E+30  1.00000000E+30  1.00000000E+30  1.00000000E+30  1.00000000E+30  1.00000000E+30  1.00000000E+30  1.00000000E+30  1.00000000E+30  1.00000000E+30  1.00000000E+30  1.00000000E+30  1.00000000E+30  1.00000000E+30  1.00000000E+30  1.00000000E+30  1.00000000E+30  1.00000000E+30
      1.00000000E+30  1.00000000E+30  1.00000000E+30  1.00000000E+30  1.00000000E+30  1.00000000E+30  1.00000000E+30  1.00000000E+30  1.00000000E+30  1.00000000E+30  1.00000000E+30  1.00000000E+30  1.00000000E+30  1.00000000E+30  1.00000000E+30  1.00000000E+30  1.00000000E+30  1.00000000E+30  1.00000000E+30  1.00000000E+30
      1.00000000E+30  1.00000000E+30  1.00000000E+30  1.00000000E+30  1.00000000E+30  1.00000000E+30  1.00000000E+30  1.00000000E+30  1.00000000E+30  1.00000000E+30  1.00000000E+30  1.00000000E+30  1.00000000E+30  1.00000000E+30  1.00000000E+30  1.00000000E+30  1.00000000E+30  1.00000000E+30  1.00000000E+30  1.00000000E+30
      1.00000000E+30  1.00000000E+30  1.00000000E+30  1.00000000E+30  1.00000000E+30  1.00000000E+30  1.00000000E+30  1.00000000E+30  1.00000000E+30  1.00000000E+30  1.00000000E+30  1.00000000E+30  1.00000000E+30  1.00000000E+30  1.00000000E+30  1.00000000E+30  1.00000000E+30  1.00000000E+30  1.00000000E+30  1.00000000E+30
      1.00000000E+30  1.00000000E+30  1.00000000E+30  1.00000000E+30  1.00000000E+30  1.00000000E+30  1.00000000E+30  1.00000000E+30  1.00000000E+30  1.00000000E+30  1.00000000E+30  1.00000000E+30  1.00000000E+30  1.00000000E+30  1.00000000E+30  1.00000000E+30  1.00000000E+30  1.00000000E+30  1.00000000E+30  1.00000000E+30
      1.00000000E+30  1.00000000E+30  1.00000000E+30  1.00000000E+30  1.00000000E+30  1.00000000E+30  1.00000000E+30  1.00000000E+30  1.00000000E+30  1.00000000E+30  1.00000000E+30  1.00000000E+30  1.00000000E+30  1.00000000E+30  1.00000000E+30  1.00000000E+30  1.00000000E+30  1.00000000E+30  1.00000000E+30  1.00000000E+30
      1.00000000E+30  1.00000000E+30  1.00000000E+30  1.00000000E+30  1.00000000E+30  1.00000000E+30  1.00000000E+30  1.00000000E+30  1.00000000E+30  1.00000000E+30  1.00000000E+30  1.00000000E+30  1.00000000E+30  1.00000000E+30  1.00000000E+30  1.00000000E+30  1.00000000E+30  1.00000000E+30  1.00000000E+30  1.00000000E+30
      1.00000000E+30  1.00000000E+30  1.00000000E+30  1.00000000E+30  1.00000000E+30  1.00000000E+30  1.00000000E+30  1.00000000E+30  1.00000000E+30  1.00000000E+30  1.00000000E+30  1.00000000E+30  1.00000000E+30  1.00000000E+30  1.00000000E+30  1.00000000E+30  1.00000000E+30  1.00000000E+30  1.00000000E+30  1.00000000E+30
      1.00000000E+30  1.00000000E+30  1.00000000E+30  1.00000000E+30  1.00000000E+30  1.00000000E+30  1.00000000E+30  1.00000000E+30  1.00000000E+30  1.00000000E+30  1.00000000E+30  1.00000000E+30  1.00000000E+30  1.00000000E+30  1.00000000E+30  1.00000000E+30  1.00000000E+30  1.00000000E+30  1.00000000E+30  1.00000000E+30
      1.00000000E+30  1.00000000E+30  1.00000000E+30  1.00000000E+30  1.00000000E+30  1.00000000E+30  1.00000000E+30  1.00000000E+30  1.00000000E+30  1.00000000E+30  1.00000000E+30  1.00000000E+30  1.00000000E+30  1.00000000E+30  1.00000000E+30  1.00000000E+30  1.00000000E+30  1.00000000E+30  1.00000000E+30  1.00000000E+30
      1.00000000E+30  1.00000000E+30  1.00000000E+30  1.00000000E+30  1.00000000E+30  1.00000000E+30  1.00000000E+30  1.00000000E+30  1.00000000E+30  1.00000000E+30  1.00000000E+30  1.00000000E+30  1.00000000E+30  1.00000000E+30  1.00000000E+30  1.00000000E+30  1.00000000E+30  1.00000000E+30  1.00000000E+30  1.00000000E+30
      1.00000000E+30  1.00000000E+30  1.00000000E+30  1.00000000E+30  1.00000000E+30  1.00000000E+30  1.00000000E+30  1.00000000E+30  1.00000000E+30  1.00000000E+30  1.00000000E+30  1.00000000E+30  1.00000000E+30  1.00000000E+30  1.00000000E+30  1.00000000E+30  1.00000000E+30  1.00000000E+30  1.00000000E+30  1.00000000E+30
      1.00000000E+30  1.00000000E+30  1.00000000E+30  1.00000000E+30  1.00000000E+30  1.00000000E+30  1.00000000E+30  1.00000000E+30  1.00000000E+30  1.00000000E+30  1.00000000E+30  1.00000000E+30  1.00000000E+30  1.00000000E+30  1.00000000E+30  1.00000000E+30  1.00000000E+30  1.00000000E+30  1.00000000E+30  1.00000000E+30
      1.00000000E+30  1.00000000E+30  1.00000000E+30  1.00000000E+30  1.00000000E+30  1.00000000E+30  1.00000000E+30  1.00000000E+30  1.00000000E+30  1.00000000E+30  1.00000000E+30  1.00000000E+30  1.00000000E+30  1.00000000E+30  1.00000000E+30  1.00000000E+30  1.00000000E+30  1.00000000E+30  1.00000000E+30  1.00000000E+30
      1.00000000E+30  1.00000000E+30  1.00000000E+30  1.00000000E+30  1.00000000E+30     569.12965615  1.00000000E+30     568.91022541  1.00000000E+30  1.00000000E+30  1.00000000E+30  1.00000000E+30  1.00000000E+30  1.00000000E+30  1.00000000E+30  1.00000000E+30  1.00000000E+30  1.00000000E+30  1.00000000E+30  1.00000000E+30
      1.00000000E+30  1.00000000E+30  1.00000000E+30  1.00000000E+30  1.00000000E+30  1.00000000E+30  1.00000000E+30  1.00000000E+30  1.00000000E+30  1.00000000E+30  1.00000000E+30  1.00000000E+30  1.00000000E+30  1.00000000E+30  1.00000000E+30  1.00000000E+30  1.00000000E+30  1.00000000E+30  1.00000000E+30  1.00000000E+30
      1.00000000E+30  1.00000000E+30  1.00000000E+30     576.61557766     576.62161111  1.00000000E+30  1.00000000E+30  1.00000000E+30  1.00000000E+30  1.00000000E+30  1.00000000E+30  1.00000000E+30  1.00000000E+30     533.05199603  1.00000000E+30  1.00000000E+30     533.10331144  1.00000000E+30  1.00000000E+30  1.00000000E+30
      1.00000000E+30  1.00000000E+30  1.00000000E+30  1.00000000E+30  1.00000000E+30  1.00000000E+30  1.00000000E+30  1.00000000E+30  1.00000000E+30  1.00000000E+30  1.00000000E+30  1.00000000E+30  1.00000000E+30  1.00000000E+30  1.00000000E+30  1.00000000E+30  1.00000000E+30  1.00000000E+30  1.00000000E+30  1.00000000E+30
      1.00000000E+30  1.00000000E+30  1.00000000E+30  1.00000000E+30  1.00000000E+30  1.00000000E+30  1.00000000E+30  1.00000000E+30  1.00000000E+30  1.00000000E+30  1.00000000E+30  1.00000000E+30  1.00000000E+30  1.00000000E+30  1.00000000E+30  1.00000000E+30  1.00000000E+30  1.00000000E+30  1.00000000E+30  1.00000000E+30
      1.00000000E+30  1.00000000E+30  1.00000000E+30  1.00000000E+30  1.00000000E+30  1.00000000E+30  1.00000000E+30  1.00000000E+30  1.00000000E+30  1.00000000E+30  1.00000000E+30  1.00000000E+30  1.00000000E+30  1.00000000E+30  1.00000000E+30  1.00000000E+30  1.00000000E+30  1.00000000E+30  1.00000000E+30  1.00000000E+30
      1.00000000E+30  1.00000000E+30  1.00000000E+30  1.00000000E+30  1.00000000E+30  1.00000000E+30  1.00000000E+30  1.00000000E+30  1.00000000E+30  1.00000000E+30  1.00000000E+30  1.00000000E+30  1.00000000E+30  1.00000000E+30     538.77671628  1.00000000E+30  1.00000000E+30  1.00000000E+30  1.00000000E+30  1.00000000E+30
      1.00000000E+30  1.00000000E+30  1.00000000E+30  1.00000000E+30  1.00000000E+30  1.00000000E+30  1.00000000E+30  1.00000000E+30  1.00000000E+30  1.00000000E+30  1.00000000E+30  1.00000000E+30  1.00000000E+30  1.00000000E+30  1.00000000E+30  1.00000000E+30  1.00000000E+30  1.00000000E+30  1.00000000E+30  1.00000000E+30
      1.00000000E+30  1.00000000E+30  1.00000000E+30  1.00000000E+30  1.00000000E+30  1.00000000E+30  1.00000000E+30  1.00000000E+30  1.00000000E+30  1.00000000E+30  1.00000000E+30  1.00000000E+30  1.00000000E+30  1.00000000E+30  1.00000000E+30  1.00000000E+30  1.00000000E+30  1.00000000E+30  1.00000000E+30  1.00000000E+30
      1.00000000E+30  1.00000000E+30  1.00000000E+30  1.00000000E+30  1.00000000E+30  1.00000000E+30  1.00000000E+30  1.00000000E+30  1.00000000E+30  1.00000000E+30  1.00000000E+30  1.00000000E+30  1.00000000E+30  1.00000000E+30  1.00000000E+30  1.00000000E+30  1.00000000E+30  1.00000000E+30  1.00000000E+30  1.00000000E+30
      1.00000000E+30  1.00000000E+30  1.00000000E+30  1.00000000E+30  1.00000000E+30  1.00000000E+30  1.00000000E+30  1.00000000E+30  1.00000000E+30  1.00000000E+30  1.00000000E+30  1.00000000E+30  1.00000000E+30  1.00000000E+30  1.00000000E+30  1.00000000E+30  1.00000000E+30  1.00000000E+30  1.00000000E+30  1.00000000E+30
      1.00000000E+30  1.00000000E+30  1.00000000E+30  1.00000000E+30  1.00000000E+30  1.00000000E+30  1.00000000E+30  1.00000000E+30  1.00000000E+30  1.00000000E+30  1.00000000E+30  1.00000000E+30  1.00000000E+30  1.00000000E+30  1.00000000E+30  1.00000000E+30  1.00000000E+30  1.00000000E+30  1.00000000E+30  1.00000000E+30
      1.00000000E+30  1.00000000E+30  1.00000000E+30  1.00000000E+30  1.00000000E+30  1.00000000E+30  1.00000000E+30  1.00000000E+30  1.00000000E+30  1.00000000E+30  1.00000000E+30  1.00000000E+30  1.00000000E+30  1.00000000E+30  1.00000000E+30  1.00000000E+30  1.00000000E+30  1.00000000E+30  1.00000000E+30  1.00000000E+30
      1.00000000E+30  1.00000000E+30  1.00000000E+30  1.00000000E+30  1.00000000E+30  1.00000000E+30  1.00000000E+30  1.00000000E+30  1.00000000E+30  1.00000000E+30  1.00000000E+30  1.00000000E+30  1.00000000E+30  1.00000000E+30  1.00000000E+30  1.00000000E+30  1.00000000E+30  1.00000000E+30  1.00000000E+30  1.00000000E+30
      1.00000000E+30  1.00000000E+30  1.00000000E+30  1.00000000E+30  1.00000000E+30  1.00000000E+30  1.00000000E+30  1.00000000E+30  1.00000000E+30  1.00000000E+30  1.00000000E+30  1.00000000E+30  1.00000000E+30  1.00000000E+30  1.00000000E+30  1.00000000E+30  1.00000000E+30  1.00000000E+30  1.00000000E+30  1.00000000E+30
      1.00000000E+30  1.00000000E+30  1.00000000E+30  1.00000000E+30  1.00000000E+30  1.00000000E+30  1.00000000E+30  1.00000000E+30  1.00000000E+30  1.00000000E+30  1.00000000E+30  1.00000000E+30  1.00000000E+30  1.00000000E+30  1.00000000E+30  1.00000000E+30  1.00000000E+30  1.00000000E+30  1.00000000E+30  1.00000000E+30
      1.00000000E+30  1.00000000E+30  1.00000000E+30  1.00000000E+30  1.00000000E+30  1.00000000E+30  1.00000000E+30  1.00000000E+30  1.00000000E+30  1.00000000E+30  1.00000000E+30  1.00000000E+30  1.00000000E+30  1.00000000E+30  1.00000000E+30  1.00000000E+30  1.00000000E+30  1.00000000E+30  1.00000000E+30  1.00000000E+30
      1.00000000E+30  1.00000000E+30  1.00000000E+30  1.00000000E+30  1.00000000E+30  1.00000000E+30  1.00000000E+30  1.00000000E+30  1.00000000E+30  1.00000000E+30  1.00000000E+30  1.00000000E+30  1.00000000E+30  1.00000000E+30  1.00000000E+30  1.00000000E+30  1.00000000E+30  1.00000000E+30  1.00000000E+30  1.00000000E+30
      1.00000000E+30  1.00000000E+30  1.00000000E+30  1.00000000E+30  1.00000000E+30  1.00000000E+30  1.00000000E+30  1.00000000E+30  1.00000000E+30  1.00000000E+30  1.00000000E+30  1.00000000E+30  1.00000000E+30  1.00000000E+30  1.00000000E+30  1.00000000E+30  1.00000000E+30  1.00000000E+30  1.00000000E+30  1.00000000E+30
      1.00000000E+30  1.00000000E+30  1.00000000E+30  1.00000000E+30  1.00000000E+30  1.00000000E+30  1.00000000E+30  1.00000000E+30  1.00000000E+30  1.00000000E+30  1.00000000E+30  1.00000000E+30  1.00000000E+30  1.00000000E+30  1.00000000E+30  1.00000000E+30  1.00000000E+30  1.00000000E+30  1.00000000E+30  1.00000000E+30
      1.00000000E+30  1.00000000E+30  1.00000000E+30  1.00000000E+30  1.00000000E+30  1.00000000E+30  1.00000000E+30  1.00000000E+30  1.00000000E+30  1.00000000E+30  1.00000000E+30  1.00000000E+30  1.00000000E+30  1.00000000E+30  1.00000000E+30  1.00000000E+30  1.00000000E+30  1.00000000E+30  1.00000000E+30  1.00000000E+30
      1.00000000E+30  1.00000000E+30  1.00000000E+30  1.00000000E+30  1.00000000E+30  1.00000000E+30     568.83448095     569.69053088  1.00000000E+30     569.40098068  1.00000000E+30  1.00000000E+30  1.00000000E+30  1.00000000E+30     568.20034962     569.14482849  1.00000000E+30     568.90422459  1.00000000E+30  1.00000000E+30
      1.00000000E+30  1.00000000E+30  1.00000000E+30  1.00000000E+30  1.00000000E+30  1.00000000E+30     570.01106110  1.00000000E+30     569.78595584     570.62215229  1.00000000E+30  1.00000000E+30     574.83133555     573.49590843  1.00000000E+30  1.00000000E+30     575.97288885  1.00000000E+30  1.00000000E+30  1.00000000E+30
      1.00000000E+30  1.00000000E+30  1.00000000E+30  1.00000000E+30  1.00000000E+30  1.00000000E+30  1.00000000E+30  1.00000000E+30  1.00000000E+30  1.00000000E+30  1.00000000E+30  1.00000000E+30  1.00000000E+30  1.00000000E+30  1.00000000E+30  1.00000000E+30  1.00000000E+30  1.00000000E+30  1.00000000E+30  1.00000000E+30
      1.00000000E+30  1.00000000E+30  1.00000000E+30  1.00000000E+30  1.00000000E+30  1.00000000E+30  1.00000000E+30  1.00000000E+30  1.00000000E+30  1.00000000E+30  1.00000000E+30  1.00000000E+30  1.00000000E+30  1.00000000E+30  1.00000000E+30  1.00000000E+30  1.00000000E+30  1.00000000E+30  1.00000000E+30  1.00000000E+30