BEGIN options
  BOUNDNAMES
  SAVE_FLOWS
  TS6  FILEIN  r1_stage_1.ts
  TS6  FILEIN  r1_stage_2.ts
  TS6  FILEIN  r1_stage_3.ts
  TS6  FILEIN  r1_stage_4.ts
  TS6  FILEIN  r1_stage_5.ts
  TS6  FILEIN  r1_stage_6.ts
  TS6  FILEIN  r1_stage_7.ts
  TS6  FILEIN  r1_stage_8.ts
  TS6  FILEIN  r1_stage_9.ts
  TS6  FILEIN  r1_stage_10.ts
  TS6  FILEIN  r1_stage_11.ts
  TS6  FILEIN  r1_stage_12.ts
  TS6  FILEIN  r1_stage_13.ts
  TS6  FILEIN  r1_stage_14.ts
  TS6  FILEIN  r1_stage_15.ts
  TS6  FILEIN  r1_stage_16.ts
  TS6  FILEIN  r1_stage_17.ts
  TS6  FILEIN  r1_stage_18.ts
  TS6  FILEIN  r1_stage_19.ts
  TS6  FILEIN  r1_stage_20.ts
  TS6  FILEIN  r1_stage_21.ts
  TS6  FILEIN  r1_stage_22.ts
  TS6  FILEIN  r1_stage_23.ts
  TS6  FILEIN  r1_stage_24.ts
  TS6  FILEIN  r1_stage_25.ts
  TS6  FILEIN  r1_stage_26.ts
  TS6  FILEIN  r1_stage_27.ts
  TS6  FILEIN  r1_stage_28.ts
  TS6  FILEIN  r1_stage_29.ts
  TS6  FILEIN  r1_stage_30.ts
  TS6  FILEIN  r1_stage_31.ts
  TS6  FILEIN  r1_stage_32.ts
  TS6  FILEIN  r1_stage_33.ts
  TS6  FILEIN  r1_stage_34.ts
  TS6  FILEIN  r1_stage_35.ts
  TS6  FILEIN  r1_stage_36.ts
  TS6  FILEIN  r1_stage_37.ts
  TS6  FILEIN  r1_stage_38.ts
  TS6  FILEIN  r1_stage_39.ts
  TS6  FILEIN  r1_stage_40.ts
  TS6  FILEIN  r1_stage_41.ts
  TS6  FILEIN  r1_stage_42.ts
  TS6  FILEIN  r1_stage_43.ts
  TS6  FILEIN  r1_stage_44.ts
  TS6  FILEIN  r1_stage_45.ts
  TS6  FILEIN  r1_stage_46.ts
  TS6  FILEIN  r1_stage_47.ts
  TS6  FILEIN  r1_stage_48.ts
  TS6  FILEIN  r1_stage_49.ts
  TS6  FILEIN  r1_stage_50.ts
  TS6  FILEIN  r1_stage_51.ts
  TS6  FILEIN  r1_stage_52.ts
  TS6  FILEIN  r1_stage_53.ts
  TS6  FILEIN  r1_stage_54.ts
  TS6  FILEIN  r1_stage_55.ts
  TS6  FILEIN  r1_stage_56.ts
  TS6  FILEIN  r1_stage_57.ts
  TS6  FILEIN  r1_stage_58.ts
  TS6  FILEIN  r1_stage_59.ts
  TS6  FILEIN  r1_stage_60.ts
  TS6  FILEIN  r1_stage_61.ts
  TS6  FILEIN  r1_stage_62.ts
  TS6  FILEIN  r1_stage_63.ts
  TS6  FILEIN  r1_stage_64.ts
  TS6  FILEIN  r1_stage_65.ts
  TS6  FILEIN  r1_stage_66.ts
  TS6  FILEIN  r1_stage_67.ts
  TS6  FILEIN  r1_stage_68.ts
  TS6  FILEIN  r1_stage_69.ts
  TS6  FILEIN  r1_stage_70.ts
  TS6  FILEIN  r1_stage_71.ts
  TS6  FILEIN  r1_stage_72.ts
  TS6  FILEIN  r1_stage_73.ts
  TS6  FILEIN  r1_stage_74.ts
  TS6  FILEIN  r1_stage_75.ts
  TS6  FILEIN  r1_stage_76.ts
  TS6  FILEIN  r1_stage_77.ts
  TS6  FILEIN  r1_stage_78.ts
  TS6  FILEIN  r1_stage_79.ts
  TS6  FILEIN  r1_stage_80.ts
  TS6  FILEIN  r1_stage_81.ts
  TS6  FILEIN  r1_stage_82.ts
  TS6  FILEIN  r1_stage_83.ts
  TS6  FILEIN  r1_stage_84.ts
  TS6  FILEIN  r1_stage_85.ts
  TS6  FILEIN  r1_stage_86.ts
  TS6  FILEIN  r1_stage_87.ts
  TS6  FILEIN  r1_stage_88.ts
  TS6  FILEIN  r1_stage_89.ts
  TS6  FILEIN  r1_stage_90.ts
  TS6  FILEIN  r1_stage_91.ts
  TS6  FILEIN  r1_stage_92.ts
  TS6  FILEIN  r1_stage_93.ts
  TS6  FILEIN  r1_stage_94.ts
  TS6  FILEIN  r1_stage_95.ts
  TS6  FILEIN  r1_stage_96.ts
  TS6  FILEIN  r1_stage_97.ts
  TS6  FILEIN  r1_stage_98.ts
  TS6  FILEIN  r1_stage_99.ts
  TS6  FILEIN  r1_stage_100.ts
  TS6  FILEIN  r1_stage_101.ts
  TS6  FILEIN  r1_stage_102.ts
  TS6  FILEIN  r1_stage_103.ts
  TS6  FILEIN  r2_stage_1.ts
  TS6  FILEIN  r2_stage_2.ts
  TS6  FILEIN  r2_stage_3.ts
  TS6  FILEIN  r2_stage_4.ts
  TS6  FILEIN  r2_stage_5.ts
  TS6  FILEIN  r2_stage_6.ts
  TS6  FILEIN  r2_stage_7.ts
  TS6  FILEIN  r2_stage_8.ts
  TS6  FILEIN  r2_stage_9.ts
  TS6  FILEIN  r2_stage_10.ts
  TS6  FILEIN  r2_stage_11.ts
  TS6  FILEIN  r2_stage_12.ts
  TS6  FILEIN  r2_stage_13.ts
  TS6  FILEIN  r2_stage_14.ts
  TS6  FILEIN  r2_stage_15.ts
  TS6  FILEIN  r2_stage_16.ts
  TS6  FILEIN  r2_stage_17.ts
  TS6  FILEIN  r2_stage_18.ts
  TS6  FILEIN  r2_stage_19.ts
  TS6  FILEIN  r2_stage_20.ts
  TS6  FILEIN  r2_stage_21.ts
  TS6  FILEIN  r2_stage_22.ts
  TS6  FILEIN  r2_stage_23.ts
  TS6  FILEIN  r2_stage_24.ts
  TS6  FILEIN  r2_stage_25.ts
  TS6  FILEIN  r2_stage_26.ts
  TS6  FILEIN  r2_stage_27.ts
  TS6  FILEIN  r2_stage_28.ts
  TS6  FILEIN  r2_stage_29.ts
  TS6  FILEIN  r2_stage_30.ts
  TS6  FILEIN  r2_stage_31.ts
  TS6  FILEIN  r2_stage_32.ts
  TS6  FILEIN  r2_stage_33.ts
  TS6  FILEIN  r2_stage_34.ts
  TS6  FILEIN  r2_stage_35.ts
  TS6  FILEIN  r2_stage_36.ts
  TS6  FILEIN  r2_stage_37.ts
  TS6  FILEIN  r2_stage_38.ts
  TS6  FILEIN  r2_stage_39.ts
  TS6  FILEIN  r2_stage_40.ts
  TS6  FILEIN  r2_stage_41.ts
  TS6  FILEIN  r2_stage_42.ts
  TS6  FILEIN  r2_stage_43.ts
  TS6  FILEIN  r2_stage_44.ts
  TS6  FILEIN  r2_stage_45.ts
  TS6  FILEIN  r2_stage_46.ts
  TS6  FILEIN  r2_stage_47.ts
  TS6  FILEIN  r2_stage_48.ts
  TS6  FILEIN  r2_stage_49.ts
  TS6  FILEIN  r2_stage_50.ts
  TS6  FILEIN  r2_stage_51.ts
  TS6  FILEIN  r2_stage_52.ts
  TS6  FILEIN  r2_stage_53.ts
  TS6  FILEIN  r2_stage_54.ts
  TS6  FILEIN  r2_stage_55.ts
  TS6  FILEIN  r2_stage_56.ts
  TS6  FILEIN  r2_stage_57.ts
  TS6  FILEIN  r2_stage_58.ts
  TS6  FILEIN  r2_stage_59.ts
  TS6  FILEIN  r2_stage_60.ts
  TS6  FILEIN  r2_stage_61.ts
  TS6  FILEIN  r2_stage_62.ts
  TS6  FILEIN  r2_stage_63.ts
  TS6  FILEIN  r2_stage_64.ts
  TS6  FILEIN  r2_stage_65.ts
  TS6  FILEIN  r2_stage_66.ts
  TS6  FILEIN  r2_stage_67.ts
  TS6  FILEIN  r2_stage_68.ts
  TS6  FILEIN  r2_stage_69.ts
  TS6  FILEIN  r2_stage_70.ts
  TS6  FILEIN  r2_stage_71.ts
  TS6  FILEIN  r2_stage_72.ts
  TS6  FILEIN  r2_stage_73.ts
  TS6  FILEIN  r2_stage_74.ts
  TS6  FILEIN  r2_stage_75.ts
  TS6  FILEIN  r2_stage_76.ts
  TS6  FILEIN  r2_stage_77.ts
  TS6  FILEIN  r2_stage_78.ts
  TS6  FILEIN  r2_stage_79.ts
  TS6  FILEIN  r2_stage_80.ts
  TS6  FILEIN  r2_stage_81.ts
  TS6  FILEIN  r2_stage_82.ts
  TS6  FILEIN  r2_stage_83.ts
  TS6  FILEIN  r2_stage_84.ts
  TS6  FILEIN  r2_stage_85.ts
  TS6  FILEIN  r2_stage_86.ts
  TS6  FILEIN  r2_stage_87.ts
  TS6  FILEIN  r2_stage_88.ts
  TS6  FILEIN  r2_stage_89.ts
  TS6  FILEIN  r2_stage_90.ts
  TS6  FILEIN  r2_stage_91.ts
  TS6  FILEIN  r2_stage_92.ts
  TS6  FILEIN  r2_stage_93.ts
  TS6  FILEIN  r2_stage_94.ts
  TS6  FILEIN  r2_stage_95.ts
  TS6  FILEIN  r2_stage_96.ts
  TS6  FILEIN  r2_stage_97.ts
  TS6  FILEIN  r2_stage_98.ts
  TS6  FILEIN  r2_stage_99.ts
  TS6  FILEIN  r2_stage_100.ts
  TS6  FILEIN  r2_stage_101.ts
  TS6  FILEIN  r2_stage_102.ts
  TS6  FILEIN  r2_stage_103.ts
  TS6  FILEIN  r2_stage_104.ts
  TS6  FILEIN  r2_stage_105.ts
  TS6  FILEIN  r2_stage_106.ts
  TS6  FILEIN  r2_stage_107.ts
  TS6  FILEIN  r2_stage_108.ts
  TS6  FILEIN  r2_stage_109.ts
  TS6  FILEIN  r2_stage_110.ts
  TS6  FILEIN  r2_stage_111.ts
  TS6  FILEIN  r2_stage_112.ts
  TS6  FILEIN  r2_stage_113.ts
  TS6  FILEIN  r2_stage_114.ts
  TS6  FILEIN  r2_stage_115.ts
  TS6  FILEIN  r2_stage_116.ts
  TS6  FILEIN  r2_stage_117.ts
  TS6  FILEIN  r2_stage_118.ts
  TS6  FILEIN  r2_stage_119.ts
  TS6  FILEIN  r2_stage_120.ts
  TS6  FILEIN  r2_stage_121.ts
  TS6  FILEIN  r2_stage_122.ts
  TS6  FILEIN  r2_stage_123.ts
  TS6  FILEIN  r2_stage_124.ts
  TS6  FILEIN  r2_stage_125.ts
  TS6  FILEIN  r2_stage_126.ts
  TS6  FILEIN  r2_stage_127.ts
  TS6  FILEIN  r2_stage_128.ts
  TS6  FILEIN  r2_stage_129.ts
  TS6  FILEIN  r2_stage_130.ts
  TS6  FILEIN  r2_stage_131.ts
  TS6  FILEIN  r2_stage_132.ts
  TS6  FILEIN  r2_stage_133.ts
  TS6  FILEIN  r2_stage_134.ts
  TS6  FILEIN  r2_stage_135.ts
  TS6  FILEIN  r2_stage_136.ts
  TS6  FILEIN  r2_stage_137.ts
  TS6  FILEIN  r2_stage_138.ts
  TS6  FILEIN  r2_stage_139.ts
  TS6  FILEIN  r2_stage_140.ts
  TS6  FILEIN  r2_stage_141.ts
  TS6  FILEIN  r2_stage_142.ts
  TS6  FILEIN  r2_stage_143.ts
  TS6  FILEIN  r2_stage_144.ts
  TS6  FILEIN  r2_stage_145.ts
  TS6  FILEIN  r3_stage_1.ts
  TS6  FILEIN  r3_stage_2.ts
  TS6  FILEIN  r3_stage_3.ts
  TS6  FILEIN  r3_stage_4.ts
  TS6  FILEIN  r3_stage_5.ts
  TS6  FILEIN  r3_stage_6.ts
  TS6  FILEIN  r3_stage_7.ts
  TS6  FILEIN  r3_stage_8.ts
  TS6  FILEIN  r3_stage_9.ts
  TS6  FILEIN  r3_stage_10.ts
  TS6  FILEIN  r3_stage_11.ts
  TS6  FILEIN  r3_stage_12.ts
  TS6  FILEIN  r3_stage_13.ts
  TS6  FILEIN  r3_stage_14.ts
  TS6  FILEIN  r3_stage_15.ts
  TS6  FILEIN  r3_stage_16.ts
  TS6  FILEIN  r3_stage_17.ts
  TS6  FILEIN  r3_stage_18.ts
  TS6  FILEIN  r3_stage_19.ts
  TS6  FILEIN  r3_stage_20.ts
  TS6  FILEIN  r3_stage_21.ts
  TS6  FILEIN  r3_stage_22.ts
  TS6  FILEIN  r3_stage_23.ts
  TS6  FILEIN  r3_stage_24.ts
  TS6  FILEIN  r3_stage_25.ts
  TS6  FILEIN  r3_stage_26.ts
  TS6  FILEIN  r3_stage_27.ts
  TS6  FILEIN  r3_stage_28.ts
  TS6  FILEIN  r3_stage_29.ts
  TS6  FILEIN  r3_stage_30.ts
  TS6  FILEIN  r3_stage_31.ts
  TS6  FILEIN  r3_stage_32.ts
  TS6  FILEIN  r3_stage_33.ts
  TS6  FILEIN  r3_stage_34.ts
  TS6  FILEIN  r3_stage_35.ts
  TS6  FILEIN  r3_stage_36.ts
  TS6  FILEIN  r3_stage_37.ts
  TS6  FILEIN  r3_stage_38.ts
  TS6  FILEIN  r3_stage_39.ts
  TS6  FILEIN  r3_stage_40.ts
  TS6  FILEIN  r3_stage_41.ts
  TS6  FILEIN  r3_stage_42.ts
  TS6  FILEIN  r3_stage_43.ts
  TS6  FILEIN  r3_stage_44.ts
  TS6  FILEIN  r3_stage_45.ts
  TS6  FILEIN  r3_stage_46.ts
  TS6  FILEIN  r3_stage_47.ts
  TS6  FILEIN  r3_stage_48.ts
  TS6  FILEIN  r3_stage_49.ts
  TS6  FILEIN  r3_stage_50.ts
  TS6  FILEIN  r3_stage_51.ts
  TS6  FILEIN  r3_stage_52.ts
  TS6  FILEIN  r3_stage_53.ts
  TS6  FILEIN  r3_stage_54.ts
  TS6  FILEIN  r3_stage_55.ts
  TS6  FILEIN  r3_stage_56.ts
  TS6  FILEIN  r3_stage_57.ts
  TS6  FILEIN  r3_stage_58.ts
  TS6  FILEIN  r3_stage_59.ts
  TS6  FILEIN  r3_stage_60.ts
  TS6  FILEIN  r4_stage_1.ts
  TS6  FILEIN  r4_stage_2.ts
  TS6  FILEIN  r4_stage_3.ts
  TS6  FILEIN  r4_stage_4.ts
  TS6  FILEIN  r4_stage_5.ts
  TS6  FILEIN  r4_stage_6.ts
  TS6  FILEIN  r4_stage_7.ts
  TS6  FILEIN  r4_stage_8.ts
  TS6  FILEIN  r4_stage_9.ts
  TS6  FILEIN  r4_stage_10.ts
  TS6  FILEIN  r4_stage_11.ts
  TS6  FILEIN  r4_stage_12.ts
  TS6  FILEIN  r4_stage_13.ts
  TS6  FILEIN  r4_stage_14.ts
  TS6  FILEIN  r4_stage_15.ts
  TS6  FILEIN  r4_stage_16.ts
  TS6  FILEIN  r4_stage_17.ts
  TS6  FILEIN  r4_stage_18.ts
  TS6  FILEIN  r4_stage_19.ts
  TS6  FILEIN  r4_stage_20.ts
  TS6  FILEIN  r4_stage_21.ts
  TS6  FILEIN  r4_stage_22.ts
  TS6  FILEIN  r4_stage_23.ts
  TS6  FILEIN  r4_stage_24.ts
  TS6  FILEIN  r4_stage_25.ts
  TS6  FILEIN  r4_stage_26.ts
  TS6  FILEIN  r4_stage_27.ts
  TS6  FILEIN  r4_stage_28.ts
  TS6  FILEIN  r4_stage_29.ts
  TS6  FILEIN  r4_stage_30.ts
  TS6  FILEIN  r4_stage_31.ts
  TS6  FILEIN  r4_stage_32.ts
  TS6  FILEIN  r4_stage_33.ts
  TS6  FILEIN  r4_stage_34.ts
  TS6  FILEIN  r4_stage_35.ts
  TS6  FILEIN  r4_stage_36.ts
  TS6  FILEIN  r4_stage_37.ts
  TS6  FILEIN  r4_stage_38.ts
  TS6  FILEIN  r4_stage_39.ts
  TS6  FILEIN  r4_stage_40.ts
  TS6  FILEIN  r4_stage_41.ts
  TS6  FILEIN  r4_stage_42.ts
  TS6  FILEIN  r4_stage_43.ts
  TS6  FILEIN  r4_stage_44.ts
  TS6  FILEIN  r4_stage_45.ts
  TS6  FILEIN  r4_stage_46.ts
  TS6  FILEIN  r4_stage_47.ts
  TS6  FILEIN  r4_stage_48.ts
  TS6  FILEIN  r4_stage_49.ts
  TS6  FILEIN  r4_stage_50.ts
  TS6  FILEIN  r4_stage_51.ts
  TS6  FILEIN  r4_stage_52.ts
  TS6  FILEIN  r4_stage_53.ts
  TS6  FILEIN  r4_stage_54.ts
  TS6  FILEIN  r4_stage_55.ts
  TS6  FILEIN  r4_stage_56.ts
  TS6  FILEIN  r4_stage_57.ts
  TS6  FILEIN  r4_stage_58.ts
  TS6  FILEIN  r4_stage_59.ts
  TS6  FILEIN  r4_stage_60.ts
  TS6  FILEIN  r4_stage_61.ts
  TS6  FILEIN  r4_stage_62.ts
  TS6  FILEIN  r4_stage_63.ts
  TS6  FILEIN  r4_stage_64.ts
  TS6  FILEIN  r4_stage_65.ts
  TS6  FILEIN  r4_stage_66.ts
  TS6  FILEIN  r4_stage_67.ts
  TS6  FILEIN  r4_stage_68.ts
  TS6  FILEIN  r4_stage_69.ts
  TS6  FILEIN  r4_stage_70.ts
  TS6  FILEIN  r4_stage_71.ts
  TS6  FILEIN  r4_stage_72.ts
  TS6  FILEIN  r4_stage_73.ts
  TS6  FILEIN  r4_stage_74.ts
  TS6  FILEIN  r4_stage_75.ts
  TS6  FILEIN  r4_stage_76.ts
  TS6  FILEIN  r4_stage_77.ts
  TS6  FILEIN  r4_stage_78.ts
  TS6  FILEIN  r4_stage_79.ts
  TS6  FILEIN  r4_stage_80.ts
  TS6  FILEIN  r4_stage_81.ts
  TS6  FILEIN  r4_stage_82.ts
  TS6  FILEIN  r4_stage_83.ts
  TS6  FILEIN  r4_stage_84.ts
  TS6  FILEIN  r4_stage_85.ts
  TS6  FILEIN  r4_stage_86.ts
  TS6  FILEIN  r4_stage_87.ts
  TS6  FILEIN  r4_stage_88.ts
  TS6  FILEIN  r4_stage_89.ts
  TS6  FILEIN  r4_stage_90.ts
  TS6  FILEIN  r4_stage_91.ts
  TS6  FILEIN  r4_stage_92.ts
  TS6  FILEIN  r4_stage_93.ts
  TS6  FILEIN  r4_stage_94.ts
  TS6  FILEIN  r4_stage_95.ts
  TS6  FILEIN  r4_stage_96.ts
  TS6  FILEIN  r4_stage_97.ts
  TS6  FILEIN  r4_stage_98.ts
  TS6  FILEIN  r4_stage_99.ts
  TS6  FILEIN  r4_stage_100.ts
  TS6  FILEIN  r4_stage_101.ts
  TS6  FILEIN  r4_stage_102.ts
  TS6  FILEIN  r4_stage_103.ts
  TS6  FILEIN  r4_stage_104.ts
  TS6  FILEIN  r4_stage_105.ts
  TS6  FILEIN  r4_stage_106.ts
  TS6  FILEIN  r4_stage_107.ts
  TS6  FILEIN  r4_stage_108.ts
  TS6  FILEIN  r4_stage_109.ts
  TS6  FILEIN  r4_stage_110.ts
  TS6  FILEIN  r4_stage_111.ts
  TS6  FILEIN  r4_stage_112.ts
  TS6  FILEIN  r4_stage_113.ts
  TS6  FILEIN  r4_stage_114.ts
  TS6  FILEIN  r4_stage_115.ts
  TS6  FILEIN  r4_stage_116.ts
  TS6  FILEIN  r4_stage_117.ts
  TS6  FILEIN  r4_stage_118.ts
  TS6  FILEIN  r4_stage_119.ts
  TS6  FILEIN  r4_stage_120.ts
  TS6  FILEIN  r4_stage_121.ts
  TS6  FILEIN  r4_stage_122.ts
  TS6  FILEIN  r4_stage_123.ts
  TS6  FILEIN  r4_stage_124.ts
  TS6  FILEIN  r4_stage_125.ts
  TS6  FILEIN  r4_stage_126.ts
  TS6  FILEIN  r4_stage_127.ts
  TS6  FILEIN  r4_stage_128.ts
  TS6  FILEIN  r4_stage_129.ts
  TS6  FILEIN  r4_stage_130.ts
  TS6  FILEIN  r4_stage_131.ts
  TS6  FILEIN  r4_stage_132.ts
  TS6  FILEIN  r4_stage_133.ts
  TS6  FILEIN  r4_stage_134.ts
  TS6  FILEIN  r4_stage_135.ts
  TS6  FILEIN  r4_stage_136.ts
  TS6  FILEIN  r4_stage_137.ts
  TS6  FILEIN  r4_stage_138.ts
  TS6  FILEIN  r4_stage_139.ts
  TS6  FILEIN  r4_stage_140.ts
  TS6  FILEIN  r4_stage_141.ts
  TS6  FILEIN  r4_stage_142.ts
  TS6  FILEIN  r4_stage_143.ts
  TS6  FILEIN  r4_stage_144.ts
  TS6  FILEIN  r4_stage_145.ts
  TS6  FILEIN  r4_stage_146.ts
  TS6  FILEIN  r4_stage_147.ts
  TS6  FILEIN  r4_stage_148.ts
  TS6  FILEIN  r4_stage_149.ts
  TS6  FILEIN  r4_stage_150.ts
  TS6  FILEIN  r4_stage_151.ts
  TS6  FILEIN  r4_stage_152.ts
  OBS6  FILEIN  DC_MF6.riv.obs
END options

BEGIN dimensions
  MAXBOUND  603
END dimensions

BEGIN period  1
  6 9628     411.78373663       0.01354167     411.38373663  devils_river
  6 9643     414.47319964       0.01354167     414.07319964  devils_river
  6 10632     412.72470751       0.01354167     412.32470751  devils_river
  6 10633     411.28895359       0.01354167     410.88895359  devils_river
  6 10634     414.21370876       0.01354167     413.81370876  devils_river
  6 10636     410.95335435       0.01354167     410.55335435  devils_river
  6 10637     411.83233534       0.01354167     411.43233534  devils_river
  6 10640     413.06500107       0.01354167     412.66500107  devils_river
  6 10641     412.96073437       0.01354167     412.56073437  devils_river
  6 10644     412.53898023       0.01354167     412.13898023  devils_river
  6 10645     412.08827917       0.01354167     411.68827917  devils_river
  6 10648     411.48800036       0.01354167     411.08800036  devils_river
  6 10649     410.16668532       0.01354167     409.76668532  devils_river
  6 10652     408.29958871       0.01354167     407.89958871  devils_river
  6 10653     407.93393637       0.01354167     407.53393637  devils_river
  6 10656     407.08612847       0.01354167     406.68612847  devils_river
  6 10657     407.12239142       0.01354167     406.72239142  devils_river
  6 10660     407.28088385       0.01354167     406.88088385  devils_river
  6 10661     407.26898451       0.01354167     406.86898451  devils_river
  6 10670     409.68742576       0.00677083     409.28742576  devils_river
  6 10671     409.67719520       0.00677083     409.27719520  devils_river
  6 10672     408.83847424       0.00677083     408.43847424  devils_river
  6 10673     408.40994701       0.00677083     408.00994701  devils_river
  6 10682     408.37214486       0.00677083     407.97214486  devils_river
  6 10683     409.06037036       0.00677083     408.66037036  devils_river
  6 10684     407.12109247       0.00677083     406.72109247  devils_river
  6 10685     406.74487004       0.00677083     406.34487004  devils_river
  6 10686     409.22225172       0.00677083     408.82225172  devils_river
  6 10688     406.68007874       0.00677083     406.28007874  devils_river
  6 10689     406.12370588       0.00677083     405.72370588  devils_river
  6 10701     406.09674505       0.00677083     405.69674505  devils_river
  6 10702     406.09123095       0.00677083     405.69123095  devils_river
  6 10705     407.93654649       0.00677083     407.53654649  devils_river
  6 10723     409.10722838       0.00677083     408.70722839  devils_river
  6 10724     408.05966329       0.00677083     407.65966329  devils_river
  6 10727     406.87600876       0.00677083     406.47600876  devils_river
  6 10728     407.02995950       0.00677083     406.62995950  devils_river
  6 10730     407.98617468       0.00677083     407.58617468  devils_river
  6 10735     413.96339667       0.00677083     413.56339667  devils_river
  6 10737     406.80648155       0.00677083     406.40648155  devils_river
  6 10738     410.57165680       0.00677083     410.17165680  devils_river
  6 10743     408.57454053       0.00677083     408.17454053  devils_river
  6 10744     406.08804272       0.00677083     405.68804272  devils_river
  6 10747     407.48997654       0.00677083     407.08997654  devils_river
  6 10749     405.51011113       0.00677083     405.11011114  devils_river
  6 10750     408.81353070       0.00677083     408.41353070  devils_river
  6 10754     408.40136223       0.00677083     408.00136223  devils_river
  6 10755     404.73871182       0.00677083     404.33871182  devils_river
  6 10757     406.59525702       0.00677083     406.19525702  devils_river
  6 10893     409.15463904       0.00677083     408.75463904  devils_river
  6 10895     405.00341938       0.00677083     404.60341938  devils_river
  6 10896     419.20026809       0.00677083     418.80026809  devils_river
  6 10901     405.59696123       0.00677083     405.19696123  devils_river
  6 10902     405.38826368       0.00677083     404.98826368  devils_river
  6 10903     406.80504980       0.00677083     406.40504980  devils_river
  6 10904     404.90423080       0.00677083     404.50423080  devils_river
  6 10926     405.42604569       0.00677083     405.02604569  devils_river
  6 10928     406.57066292       0.00677083     406.17066292  devils_river
  6 10929     404.49513732       0.00677083     404.09513732  devils_river
  6 10931     404.54733826       0.00677083     404.14733826  devils_river
  6 10934     407.51926084       0.00677083     407.11926084  devils_river
  6 10937     404.93149097       0.00677083     404.53149097  devils_river
  6 10939     405.89299411       0.00677083     405.49299411  devils_river
  6 10940     404.52426751       0.00677083     404.12426751  devils_river
  6 11518     406.77529987       0.00677083     406.37529987  devils_river
  6 11519     404.54359533       0.00677083     404.14359533  devils_river
  6 11521     405.43406213       0.00677083     405.03406213  devils_river
  6 11523     406.85667821       0.00677083     406.45667821  devils_river
  6 11525     407.66955373       0.00677083     407.26955373  devils_river
  6 11528     404.68256844       0.00677083     404.28256844  devils_river
  6 11534     404.58805845       0.00677083     404.18805845  devils_river
  6 11536     405.53793897       0.00677083     405.13793897  devils_river
  6 11537     405.62578840       0.00677083     405.22578840  devils_river
  6 11546     406.14843044       0.00677083     405.74843044  devils_river
  6 11547     405.10111351       0.00677083     404.70111351  devils_river
  6 11548     407.13669162       0.00677083     406.73669162  devils_river
  6 11549     404.77902487       0.00677083     404.37902487  devils_river
  6 11552     405.69852358       0.00677083     405.29852358  devils_river
  6 11555     405.83870241       0.00677083     405.43870241  devils_river
  6 11557     406.84295927       0.00677083     406.44295927  devils_river
  6 11558     404.86456611       0.00677083     404.46456611  devils_river
  6 11560     404.64190591       0.00677083     404.24190591  devils_river
  6 11629     405.59752082       0.00677083     405.19752082  devils_river
  6 11630     404.71375395       0.00677083     404.31375395  devils_river
  6 11631     406.10721079       0.00677083     405.70721079  devils_river
  6 11632     404.59481066       0.00677083     404.19481066  devils_river
  6 11636     404.57624409       0.00677083     404.17624409  devils_river
  6 11638     405.38698820       0.00677083     404.98698820  devils_river
  6 11641     406.30493877       0.00677083     405.90493877  devils_river
  6 11643     406.75841481       0.00677083     406.35841481  devils_river
  6 11645     407.29338857       0.00677083     406.89338857  devils_river
  6 11647     407.46058707       0.00677083     407.06058707  devils_river
  6 11658     405.31187459       0.00677083     404.91187459  devils_river
  6 11680     405.34783265       0.00677083     404.94783265  devils_river
  6 11682     404.77229090       0.00677083     404.37229090  devils_river
  6 11688     405.97177168       0.00677083     405.57177168  devils_river
  6 11690     405.57735536       0.00677083     405.17735536  devils_river
  6 12251     408.00393233       0.00677083     407.60393233  devils_river
  6 12253     407.83275016       0.00677083     407.43275016  devils_river
  6 12255     407.43324034       0.00677083     407.03324034  devils_river
  6 12256     406.99211749       0.00677083     406.59211749  devils_river
  6 12257     405.21525940       0.00677083     404.81525941  devils_river
  6 12259     404.61772417       0.00677083     404.21772417  devils_river
  6 12265     404.13153314       0.00677083     403.73153314  devils_river
  6 12267     404.04252593       0.00677083     403.64252593  devils_river
  3 869  r1_stage_1     100.00000000     562.47644043  reach_1
  3 866  r1_stage_2     100.00000000     563.03094482  reach_1
  3 853  r1_stage_3     100.00000000     563.81634521  reach_1
  3 854  r1_stage_4     100.00000000     563.29589844  reach_1
  3 1265  r1_stage_5     100.00000000     559.06793213  reach_1
  3 1259  r1_stage_6     100.00000000     560.07879639  reach_1
  3 1257  r1_stage_7     100.00000000     561.66326904  reach_1
  3 1256  r1_stage_8     100.00000000     572.22009277  reach_1
  3 875  r1_stage_9     100.00000000     561.85223389  reach_1
  3 874  r1_stage_10     100.00000000     561.44445801  reach_1
  3 873  r1_stage_11     100.00000000     561.43914795  reach_1
  3 868  r1_stage_12     100.00000000     561.79974365  reach_1
  3 1252  r1_stage_13     100.00000000     565.17340088  reach_1
  3 1233  r1_stage_14     100.00000000     555.25054932  reach_1
  3 1237  r1_stage_15     100.00000000     554.88806152  reach_1
  3 1249  r1_stage_16     100.00000000     561.17694092  reach_1
  3 1246  r1_stage_17     100.00000000     557.17913818  reach_1
  3 1247  r1_stage_18     100.00000000     559.63659668  reach_1
  3 1276  r1_stage_19     100.00000000     558.32568359  reach_1
  3 1245  r1_stage_20     100.00000000     558.65679932  reach_1
  3 1266  r1_stage_21     100.00000000     558.95092773  reach_1
  3 1267  r1_stage_22     100.00000000     559.41387939  reach_1
  3 1619  r1_stage_23     100.00000000     554.42340088  reach_1
  3 1620  r1_stage_24     100.00000000     554.26037598  reach_1
  3 1617  r1_stage_25     100.00000000     553.44012451  reach_1
  3 1621  r1_stage_26     100.00000000     554.85723877  reach_1
  3 1235  r1_stage_27     100.00000000     554.70184326  reach_1
  3 1203  r1_stage_28     100.00000000     554.15808105  reach_1
  3 1234  r1_stage_29     100.00000000     554.76141357  reach_1
  3 1248  r1_stage_30     100.00000000     556.70367432  reach_1
  3 1236  r1_stage_31     100.00000000     555.02148438  reach_1
  3 1641  r1_stage_32     100.00000000     552.48571777  reach_1
  3 1599  r1_stage_33     100.00000000     547.58905029  reach_1
  3 1600  r1_stage_34     100.00000000     548.81524658  reach_1
  3 1635  r1_stage_35     100.00000000     551.92413330  reach_1
  3 1638  r1_stage_36     100.00000000     553.26617432  reach_1
  3 1639  r1_stage_37     100.00000000     562.43450928  reach_1
  3 1648  r1_stage_38     100.00000000     553.51232910  reach_1
  3 1637  r1_stage_39     100.00000000     552.65643311  reach_1
  3 1626  r1_stage_40     100.00000000     552.84997559  reach_1
  3 1625  r1_stage_41     100.00000000     554.67034912  reach_1
  3 1624  r1_stage_42     100.00000000     554.50775146  reach_1
  3 2010  r1_stage_43     100.00000000     544.41271973  reach_1
  3 2007  r1_stage_44     100.00000000     545.24603271  reach_1
  3 2051  r1_stage_45     100.00000000     546.76013184  reach_1
  3 2045  r1_stage_46     100.00000000     545.24945068  reach_1
  3 2050  r1_stage_47     100.00000000     551.11712646  reach_1
  3 2049  r1_stage_48     100.00000000     546.12011719  reach_1
  3 2046  r1_stage_49     100.00000000     546.08862305  reach_1
  3 2059  r1_stage_50     100.00000000     546.64758301  reach_1
  3 2048  r1_stage_51     100.00000000     548.91491699  reach_1
  3 2060  r1_stage_52     100.00000000     550.07525635  reach_1
  3 1601  r1_stage_53     100.00000000     549.60662842  reach_1
  3 1598  r1_stage_54     100.00000000     547.74438477  reach_1
  3 1640  r1_stage_55     100.00000000     548.89221191  reach_1
  3 2023  r1_stage_56     100.00000000     542.12854004  reach_1
  3 2017  r1_stage_57     100.00000000     542.73522949  reach_1
  3 2015  r1_stage_58     100.00000000     548.15393066  reach_1
  3 2018  r1_stage_59     100.00000000     542.55090332  reach_1
  3 1997  r1_stage_60     100.00000000     544.32452393  reach_1
  3 1996  r1_stage_61     100.00000000     549.63836670  reach_1
  3 2008  r1_stage_62     100.00000000     542.99859619  reach_1
  3 2009  r1_stage_63     100.00000000     543.54040527  reach_1
  3 2011  r1_stage_64     100.00000000     544.61108398  reach_1
  3 2430  r1_stage_65     100.00000000     537.69635010  reach_1
  3 2408  r1_stage_66     100.00000000     542.47711182  reach_1
  3 2409  r1_stage_67     100.00000000     538.21795654  reach_1
  3 2407  r1_stage_68     100.00000000     538.35009766  reach_1
  3 2401  r1_stage_69     100.00000000     544.25805664  reach_1
  3 2404  r1_stage_70     100.00000000     539.75494385  reach_1
  3 2402  r1_stage_71     100.00000000     541.23248291  reach_1
  3 2403  r1_stage_72     100.00000000     540.71594238  reach_1
  3 2024  r1_stage_73     100.00000000     541.12542725  reach_1
  3 2025  r1_stage_74     100.00000000     542.46374512  reach_1
  3 1981  r1_stage_75     100.00000000     543.22918701  reach_1
  3 2831  r1_stage_76     100.00000000     536.43121338  reach_1
  3 2825  r1_stage_77     100.00000000     536.56109619  reach_1
  3 2823  r1_stage_78     100.00000000     536.70355225  reach_1
  3 2440  r1_stage_79     100.00000000     536.60046387  reach_1
  3 2438  r1_stage_80     100.00000000     536.63232422  reach_1
  3 2432  r1_stage_81     100.00000000     536.55889893  reach_1
  3 2822  r1_stage_82     100.00000000     536.18054199  reach_1
  3 2833  r1_stage_83     100.00000000     536.57250977  reach_1
  3 2842  r1_stage_84     100.00000000     535.67834473  reach_1
  3 2843  r1_stage_85     100.00000000     535.87963867  reach_1
  3 2840  r1_stage_86     100.00000000     544.14349365  reach_1
  3 2821  r1_stage_87     100.00000000     538.36474609  reach_1
  3 3273  r1_stage_88     100.00000000     542.03344727  reach_1
  4 3237  r1_stage_89     100.00000000     530.32501221  reach_1
  3 3226  r1_stage_90     100.00000000     530.43994141  reach_1
  3 3268  r1_stage_91     100.00000000     538.52484131  reach_1
  3 3238  r1_stage_92     100.00000000     531.97961426  reach_1
  3 3267  r1_stage_93     100.00000000     533.86926270  reach_1
  4 3223  r1_stage_94     100.00000000     530.38195801  reach_1
  4 3219  r1_stage_95     100.00000000     529.15716553  reach_1
  4 3220  r1_stage_96     100.00000000     530.15411377  reach_1
  3 3266  r1_stage_97     100.00000000     533.69909668  reach_1
  3 3224  r1_stage_98     100.00000000     531.67889404  reach_1
  3 2850  r1_stage_99     100.00000000     533.61206055  reach_1
  3 2848  r1_stage_100     100.00000000     533.44458008  reach_1
  3 3244  r1_stage_101     100.00000000     534.90765381  reach_1
  3 3248  r1_stage_102     100.00000000     535.91687012  reach_1
  3 3247  r1_stage_103     100.00000000     534.93273926  reach_1
  4 3173  r2_stage_1     100.00000000     524.36486816  reach_2
  4 3177  r2_stage_2     100.00000000     529.99261475  reach_2
  4 3174  r2_stage_3     100.00000000     525.00866699  reach_2
  3 3178  r2_stage_4     100.00000000     533.05389404  reach_2
  4 3176  r2_stage_5     100.00000000     527.59686279  reach_2
  4 3604  r2_stage_6     100.00000000     522.84228516  reach_2
  4 3602  r2_stage_7     100.00000000     522.84472656  reach_2
  4 3214  r2_stage_8     100.00000000     523.97448730  reach_2
  4 3213  r2_stage_9     100.00000000     523.14447021  reach_2
  4 3211  r2_stage_10     100.00000000     523.16296387  reach_2
  3 3200  r2_stage_11     100.00000000     537.61517334  reach_2
  3 3194  r2_stage_12     100.00000000     537.11596680  reach_2
  4 3192  r2_stage_13     100.00000000     528.94262695  reach_2
  4 3170  r2_stage_14     100.00000000     527.90454102  reach_2
  4 3168  r2_stage_15     100.00000000     523.86511230  reach_2
  4 3179  r2_stage_16     100.00000000     525.02813721  reach_2
  4 3954  r2_stage_17     100.00000000     516.03649902  reach_2
  4 3952  r2_stage_18     100.00000000     516.53948975  reach_2
  4 3953  r2_stage_19     100.00000000     518.73529053  reach_2
  4 3947  r2_stage_20     100.00000000     516.30535889  reach_2
  4 3978  r2_stage_21     100.00000000     519.62023926  reach_2
  4 3976  r2_stage_22     100.00000000     516.75421143  reach_2