BEGIN options
  SAVE_FLOWS
END options

BEGIN griddata
  icelltype  LAYERED
    CONSTANT  1
    CONSTANT  1
    CONSTANT  1
    CONSTANT  1
    CONSTANT  1
    CONSTANT  1
    CONSTANT  1
  k  LAYERED
    INTERNAL  FACTOR  1.0
           0.10000000       0.10000000       0.10000000       0.10000000       0.10000000       0.10000000       0.10000000       0.10000000       0.10000000       0.10000000       0.10000000       0.10000000       0.10000000       0.10000000       0.10000000       0.10000000       0.10000000       0.10000000       0.10000000       0.10000000
           0.10000000       0.10000000       0.10000000       0.10000000       0.10000000       0.10000000       0.10000000       0.10000000       0.10000000       0.50000000       0.50000000       0.10000000       0.10000000       0.10000000       0.10000000       0.10000000       0.10000000       0.10000000       0.10000000       0.10000000
           0.10000000       0.10000000       0.10000000       0.10000000       0.50000000       0.50000000       0.50000000       0.50000000       0.50000000       0.10000000       0.10000000       0.10000000       0.10000000       0.10000000       0.10000000       0.10000000       0.10000000       0.10000000       0.10000000       0.10000000
           0.10000000       0.10000000       0.10000000       0.10000000       0.10000000       0.50000000       0.50000000       0.50000000       0.10000000       0.10000000       0.10000000       0.10000000       0.10000000       0.10000000       0.10000000       0.10000000       0.10000000       0.10000000       0.10000000       0.10000000
           0.10000000       0.10000000       0.10000000       0.10000000       0.10000000       0.10000000       0.10000000       0.10000000       0.10000000       0.10000000       0.10000000       0.50000000       0.50000000       0.50000000       0.50000000       0.50000000       0.10000000       0.10000000       0.10000000       0.10000000
           0.10000000       0.10000000       0.10000000       0.10000000       0.10000000       0.10000000       0.10000000       0.10000000       0.10000000       0.10000000       0.10000000       0.10000000       0.10000000       0.10000000       0.10000000       0.10000000       0.10000000       0.10000000       0.10000000       0.10000000
           0.10000000      50.00000000       0.10000000      50.00000000       0.10000000      50.00000000      50.00000000      50.00000000      50.00000000      50.00000000       0.10000000       0.10000000       0.10000000       0.10000000       0.10000000       0.10000000       0.10000000       0.10000000       0.10000000       0.10000000
           0.10000000       0.10000000       0.10000000       0.10000000       0.10000000       0.10000000       0.10000000       0.10000000       0.10000000       0.10000000       0.10000000       0.10000000      50.00000000       0.10000000       0.50000000      50.00000000       0.10000000       0.50000000       0.50000000       0.10000000
           0.10000000       0.10000000       0.10000000       0.10000000       0.10000000       0.10000000       0.10000000       0.10000000       0.10000000       0.10000000       0.10000000       0.10000000       0.10000000       0.10000000       0.10000000       0.10000000       0.10000000       0.10000000       0.10000000       0.10000000
           0.10000000       0.10000000       0.10000000       0.10000000       0.10000000       0.10000000       0.10000000       0.10000000       0.10000000       0.10000000       0.10000000       0.10000000       0.10000000       0.10000000       0.10000000       0.10000000       0.10000000       0.10000000       0.10000000       0.10000000
           0.10000000      50.00000000      50.00000000       0.10000000      50.00000000       0.10000000      50.00000000      50.00000000       0.10000000      50.00000000       0.10000000       0.10000000      50.00000000      50.00000000      50.00000000      50.00000000       0.10000000      50.00000000       0.10000000       0.10000000
           0.10000000       0.10000000       0.10000000       0.10000000       0.10000000       0.10000000       0.10000000       0.10000000       0.10000000       0.10000000       0.10000000       0.10000000       0.10000000       0.10000000       0.10000000       0.10000000       0.10000000       0.10000000       0.10000000       0.10000000
          50.00000000       0.10000000      50.00000000       0.10000000       0.10000000       0.10000000       0.10000000      50.00000000      50.00000000      50.00000000      50.00000000      50.00000000      50.00000000      50.00000000      50.00000000       0.10000000      50.00000000       0.10000000      50.00000000       0.10000000
           0.10000000       0.10000000       0.10000000       0.10000000       0.10000000       0.10000000       0.10000000       0.10000000       0.10000000       0.10000000       0.10000000       0.10000000       0.10000000       0.10000000       0.10000000       0.10000000       0.10000000       0.10000000       0.10000000       0.10000000
           0.10000000       0.10000000       0.10000000       0.10000000       0.10000000       0.10000000       0.10000000       0.10000000       0.10000000       0.10000000       0.10000000       0.10000000       0.10000000       0.10000000       0.10000000       0.10000000       0.10000000       0.10000000       0.10000000       0.10000000
           0.10000000       0.10000000       0.10000000       0.10000000       0.10000000       0.10000000       0.10000000       0.10000000       0.10000000       0.10000000       0.10000000       0.10000000       0.10000000       0.10000000       0.10000000       0.10000000       0.10000000       0.10000000       0.10000000      50.00000000
          50.00000000       0.10000000      50.00000000       0.10000000       0.10000000       0.10000000       0.10000000       0.10000000      50.00000000       0.10000000      50.00000000      50.00000000      50.00000000      50.00000000      50.00000000      50.00000000       0.10000000       0.10000000       0.10000000      50.00000000
          50.00000000       0.10000000       0.10000000       0.10000000       0.10000000       0.10000000       0.10000000       0.10000000       0.10000000       0.10000000       0.10000000       0.10000000       0.10000000      50.00000000      50.00000000       0.10000000      50.00000000       0.10000000      50.00000000      50.00000000
          50.00000000      50.00000000      50.00000000       0.10000000       0.10000000      50.00000000      50.00000000      50.00000000      50.00000000      50.00000000      50.00000000      50.00000000      50.00000000       0.10000000       0.10000000      50.00000000      50.00000000       0.10000000       0.10000000      50.00000000
          50.00000000      50.00000000      50.00000000      50.00000000      50.00000000      50.00000000      50.00000000      50.00000000      50.00000000       0.10000000       0.10000000       0.10000000      50.00000000       0.10000000       0.10000000       0.10000000       0.10000000      50.00000000      50.00000000       0.10000000
          50.00000000      50.00000000      50.00000000       0.10000000      50.00000000       0.10000000       0.10000000       0.10000000       0.10000000       0.10000000       0.10000000       0.10000000       0.10000000       0.10000000       0.10000000       0.10000000       0.10000000       0.10000000       0.10000000       0.10000000
           0.10000000       0.10000000       0.10000000       0.10000000       0.10000000       0.10000000       0.10000000       0.10000000       0.10000000       0.10000000       0.10000000       0.10000000       0.10000000       0.10000000       0.10000000       0.10000000       0.10000000       0.10000000       0.10000000       0.10000000
           0.10000000       0.10000000       0.10000000       0.10000000       0.10000000       0.10000000       0.10000000       0.10000000       0.10000000       0.10000000       0.10000000       0.10000000       0.10000000       0.10000000       0.10000000       0.10000000       0.10000000      50.00000000      50.00000000       0.10000000
           0.10000000       0.10000000       0.10000000       0.10000000       0.10000000       0.10000000      50.00000000       0.10000000       0.10000000       0.10000000      50.00000000      50.00000000       0.10000000       0.10000000       0.10000000       0.10000000       0.10000000       0.10000000       0.10000000       0.10000000
           0.10000000       0.10000000      50.00000000       0.10000000       0.10000000       0.10000000       0.10000000       0.10000000       0.10000000       0.10000000       0.10000000       0.10000000       0.10000000       0.10000000       0.10000000       0.10000000       0.10000000       0.10000000       0.10000000       0.10000000
           0.10000000       0.10000000       0.10000000       0.10000000       0.10000000       0.10000000       0.10000000       0.10000000       0.10000000      50.00000000       0.10000000      50.00000000      50.00000000       0.10000000      50.00000000      50.00000000       0.10000000      50.00000000       0.10000000      50.00000000
          50.00000000       0.10000000      50.00000000       0.10000000       0.10000000       0.10000000      50.00000000      50.00000000      50.00000000      50.00000000      50.00000000      50.00000000      50.00000000      50.00000000      50.00000000      50.00000000       0.10000000      50.00000000      50.00000000      50.00000000
          50.00000000      50.00000000      50.00000000      50.00000000      50.00000000      50.00000000       0.10000000      50.00000000      50.00000000       0.10000000       0.10000000       0.10000000       0.10000000       0.10000000       0.10000000       0.10000000       0.10000000       0.10000000       0.10000000       0.10000000
           0.10000000       0.10000000       0.10000000       0.10000000       0.10000000       0.10000000       0.10000000       0.10000000       0.10000000       0.10000000       0.10000000       0.10000000       0.10000000       0.10000000       0.10000000       0.10000000       0.10000000       0.10000000       0.10000000       0.10000000
           0.10000000       0.10000000       0.10000000       0.10000000       0.10000000       0.10000000       0.10000000       0.10000000       0.10000000       0.10000000       0.10000000       0.10000000       0.10000000       0.10000000       0.10000000       0.10000000       0.10000000       0.10000000       0.10000000       0.10000000
           0.10000000       0.10000000       0.10000000       0.10000000       0.10000000       0.10000000       0.10000000       0.10000000       0.10000000       0.10000000       0.10000000       0.10000000       0.10000000       0.10000000       0.10000000       0.10000000       0.10000000       0.10000000       0.10000000       0.10000000
           0.10000000       0.10000000       0.10000000       0.10000000       0.10000000       0.10000000       0.10000000       0.10000000       0.10000000       0.10000000       0.10000000       0.10000000       0.10000000       0.10000000       0.10000000       0.10000000       0.10000000       0.10000000       0.10000000       0.10000000
           0.10000000       0.10000000       0.10000000       0.10000000       0.10000000       0.10000000       0.10000000       0.10000000       0.10000000       0.10000000       0.10000000       0.10000000       0.10000000       0.10000000       0.10000000       0.10000000       0.10000000       0.10000000       0.10000000       0.10000000
           0.10000000       0.10000000       0.10000000       0.10000000       0.10000000       0.10000000       0.10000000       0.10000000       0.10000000       0.10000000       0.10000000       0.10000000       0.10000000       0.10000000       0.10000000       0.10000000       0.10000000       0.10000000       0.10000000       0.10000000
           0.10000000       0.10000000       0.10000000       0.10000000       0.10000000       0.10000000       0.10000000       0.10000000       0.10000000       0.10000000       0.10000000       0.10000000       0.10000000       0.10000000       0.10000000       0.10000000       0.10000000       0.10000000       0.10000000       0.10000000
           0.10000000       0.10000000       0.10000000       0.10000000       0.10000000       0.10000000       0.10000000       0.10000000       0.10000000       0.10000000       0.10000000       0.10000000       0.10000000       0.10000000       0.10000000       0.10000000       0.10000000       0.10000000       0.10000000       0.10000000
           0.10000000       0.10000000       0.10000000       0.10000000       0.10000000       0.10000000       0.10000000       0.10000000       0.10000000       0.10000000      50.00000000       0.10000000      50.00000000       0.10000000       0.10000000       0.10000000       0.10000000       0.10000000       0.10000000       0.10000000
           0.10000000      50.00000000       0.10000000      50.00000000       0.10000000       0.10000000       0.10000000       0.10000000       0.10000000       0.10000000       0.10000000       0.10000000       0.10000000       0.10000000       0.10000000       0.10000000       0.10000000       0.10000000       0.10000000       0.10000000
           0.10000000       0.10000000       0.10000000       0.10000000       0.10000000       0.10000000       0.10000000       0.10000000       0.10000000      50.00000000      50.00000000       0.10000000      50.00000000       0.10000000       0.10000000       0.10000000       0.10000000       0.10000000       0.10000000       0.10000000
           0.10000000      50.00000000      50.00000000      50.00000000      50.00000000      50.00000000      50.00000000      50.00000000       0.10000000      50.00000000      50.00000000      50.00000000       0.10000000       0.10000000       0.10000000       0.10000000       0.10000000      50.00000000       0.10000000       0.10000000
           0.10000000       0.10000000       0.10000000       0.10000000       0.10000000       0.10000000       0.10000000       0.10000000       0.10000000       0.10000000       0.10000000       0.10000000       0.10000000       0.10000000      50.00000000       0.10000000      50.00000000      50.00000000      50.00000000      50.00000000
          50.00000000      50.00000000       0.50000000       0.50000000       0.10000000       0.10000000       0.10000000       0.10000000       0.10000000       0.50000000       0.50000000       0.50000000       0.50000000       0.10000000       0.10000000      50.00000000       0.10000000      50.00000000      50.00000000      50.00000000
          50.00000000      50.00000000      50.00000000       0.10000000      50.00000000      50.00000000      50.00000000      50.00000000      50.00000000      50.00000000      50.00000000      50.00000000      50.00000000      50.00000000       0.10000000       0.10000000      50.00000000      50.00000000      50.00000000      50.00000000
          50.00000000      50.00000000      50.00000000      50.00000000      50.00000000      50.00000000      50.00000000      50.00000000      50.00000000      50.00000000      50.00000000      50.00000000      50.00000000      50.00000000      50.00000000      50.00000000      50.00000000       0.50000000      50.00000000       0.50000000
          50.00000000      50.00000000       0.10000000       0.10000000       0.10000000       0.50000000      50.00000000      50.00000000      50.00000000      50.00000000       0.10000000       0.10000000       0.10000000       0.10000000       0.10000000       0.10000000       0.10000000       0.10000000       0.10000000       0.10000000
           0.10000000       0.10000000       0.10000000       0.10000000      50.00000000       0.10000000      50.00000000      50.00000000      50.00000000      50.00000000      50.00000000       0.10000000       0.10000000       0.10000000       0.10000000       0.10000000       0.10000000       0.10000000       0.10000000      50.00000000
          50.00000000       0.10000000      50.00000000      50.00000000      50.00000000      50.00000000      50.00000000       0.10000000       0.10000000       0.10000000       0.10000000       0.10000000      50.00000000       0.10000000       0.10000000      50.00000000       0.10000000      50.00000000       0.10000000       0.10000000
           0.10000000       0.10000000       0.10000000      50.00000000       0.10000000      50.00000000      50.00000000       0.10000000       0.10000000       0.10000000       0.10000000       0.10000000       0.10000000       0.10000000       0.10000000       0.10000000       0.10000000       0.10000000       0.10000000       0.10000000
           0.10000000       0.10000000       0.10000000       0.10000000       0.10000000       0.10000000       0.10000000       0.10000000       0.10000000       0.10000000       0.10000000       0.10000000       0.10000000       0.10000000       0.10000000       0.10000000       0.10000000       0.10000000       0.10000000       0.10000000
           0.10000000       0.10000000       0.10000000       0.10000000       0.10000000       0.10000000       0.10000000       0.10000000       0.10000000       0.10000000       0.10000000       0.10000000       0.10000000       0.10000000       0.10000000       0.10000000       0.10000000       0.10000000       0.10000000       0.10000000
           0.10000000       0.10000000       0.10000000       0.10000000       0.10000000       0.10000000       0.10000000       0.10000000       0.10000000       0.10000000       0.10000000       0.10000000       0.10000000       0.10000000      50.00000000      50.00000000       0.10000000       0.10000000       0.10000000       0.10000000
           0.10000000      50.00000000       0.10000000      50.00000000      50.00000000      50.00000000      50.00000000      50.00000000       0.10000000       0.10000000      50.00000000       0.10000000       0.10000000       0.10000000       0.10000000       0.10000000      50.00000000       0.10000000       0.10000000       0.10000000
           0.10000000       0.10000000       0.10000000       0.10000000       0.10000000       0.10000000       0.10000000       0.10000000       0.10000000       0.10000000       0.10000000       0.10000000       0.10000000       0.10000000       0.10000000       0.10000000       0.10000000       0.10000000       0.10000000       0.10000000
           0.10000000       0.10000000       0.10000000       0.10000000       0.10000000       0.10000000       0.10000000      50.00000000       0.10000000       0.10000000       0.10000000       0.10000000       0.10000000      50.00000000       0.10000000       0.10000000       0.10000000       0.10000000      50.00000000      50.00000000
           0.10000000       0.10000000      50.00000000      50.00000000      50.00000000      50.00000000      50.00000000       0.10000000      50.00000000      50.00000000       0.10000000       0.10000000       0.10000000       0.10000000      50.00000000      50.00000000       0.10000000      50.00000000      50.00000000      50.00000000
          50.00000000      50.00000000       0.10000000       0.10000000      50.00000000      50.00000000       0.10000000       0.10000000      50.00000000      50.00000000      50.00000000      50.00000000       0.10000000       0.10000000       0.10000000       0.10000000      50.00000000      50.00000000      50.00000000      50.00000000
           0.10000000       0.10000000       0.10000000       0.10000000       0.10000000       0.10000000       0.10000000       0.10000000       0.10000000       0.10000000       0.10000000       0.10000000       0.10000000       0.10000000       0.10000000       0.10000000       0.10000000       0.10000000       0.10000000       0.10000000
           0.10000000       0.10000000       0.10000000       0.10000000       0.10000000      50.00000000       0.10000000      50.00000000       0.10000000       0.10000000       0.10000000       0.10000000       0.10000000      50.00000000       0.10000000      50.00000000      50.00000000       0.10000000      50.00000000       0.10000000
           0.10000000       0.10000000       0.10000000       0.10000000      50.00000000       0.10000000      50.00000000       0.50000000       0.10000000       0.10000000       0.10000000       0.10000000       0.10000000       0.10000000       0.10000000       0.10000000       0.10000000       0.10000000       0.10000000       0.10000000
           0.10000000       0.10000000       0.10000000       0.10000000       0.10000000       0.10000000       0.10000000       0.10000000       0.10000000       0.10000000       0.10000000       0.10000000       0.10000000       0.10000000      50.00000000       0.10000000       0.10000000      50.00000000      50.00000000      50.00000000
          50.00000000      50.00000000      50.00000000       0.10000000       0.10000000       0.10000000       0.10000000       0.10000000      50.00000000      50.00000000      50.00000000       0.10000000       0.10000000       0.10000000       0.10000000      50.00000000      50.00000000      50.00000000      50.00000000      50.00000000
          50.00000000      50.00000000      50.00000000       0.10000000      50.00000000      50.00000000      50.00000000      50.00000000      50.00000000      50.00000000      50.00000000      50.00000000      50.00000000      50.00000000      50.00000000      50.00000000      50.00000000      50.00000000      50.00000000      50.00000000
          50.00000000      50.00000000      50.00000000      50.00000000      50.00000000      50.00000000      50.00000000      50.00000000      50.00000000      50.00000000       0.50000000      50.00000000       0.10000000       0.50000000       0.10000000      50.00000000      50.00000000      50.00000000      50.00000000      50.00000000
          50.00000000      50.00000000      50.00000000      50.00000000      50.00000000      50.00000000      50.00000000      50.00000000      50.00000000      50.00000000      50.00000000      50.00000000      50.00000000      50.00000000       0.10000000      50.00000000      50.00000000      50.00000000      50.00000000      50.00000000
          50.00000000      50.00000000       0.10000000       0.10000000       0.10000000       0.10000000       0.10000000       0.10000000       0.10000000       0.10000000       0.10000000       0.10000000      50.00000000       0.10000000       0.10000000       0.10000000       0.10000000       0.10000000       0.10000000       0.10000000
           0.10000000       0.10000000       0.10000000       0.10000000       0.10000000       0.10000000       0.10000000       0.10000000       0.10000000       0.10000000       0.10000000       0.10000000       0.10000000       0.10000000       0.10000000       0.10000000       0.10000000       0.10000000       0.10000000       0.10000000
           0.10000000       0.10000000       0.10000000       0.10000000       0.10000000       0.10000000       0.10000000       0.10000000       0.10000000       0.10000000       0.10000000      50.00000000       0.10000000       0.10000000       0.10000000       0.10000000       0.10000000      50.00000000       0.10000000       0.10000000
          50.00000000      50.00000000      50.00000000       0.10000000       0.10000000       0.10000000       0.10000000       0.10000000      50.00000000       0.10000000       0.10000000       0.10000000       0.10000000       0.10000000       0.10000000       0.10000000       0.10000000       0.10000000       0.10000000       0.10000000
           0.10000000       0.10000000       0.10000000       0.10000000       0.10000000       0.10000000       0.10000000       0.10000000       0.10000000       0.10000000       0.10000000       0.10000000       0.10000000       0.10000000       0.10000000       0.10000000       0.10000000       0.10000000       0.10000000       0.10000000
           0.10000000       0.10000000       0.10000000       0.10000000       0.10000000       0.10000000       0.10000000       0.10000000       0.10000000       0.10000000       0.10000000       0.10000000       0.10000000       0.10000000       0.10000000       0.10000000       0.10000000       0.10000000       0.10000000       0.10000000
           0.10000000       0.10000000       0.10000000       0.10000000       0.10000000       0.10000000       0.10000000       0.10000000       0.10000000       0.10000000       0.10000000       0.10000000       0.10000000       0.10000000      50.00000000      50.00000000      50.00000000      50.00000000       0.10000000      50.00000000
          50.00000000      50.00000000      50.00000000       0.10000000       0.10000000       0.10000000      50.00000000      50.00000000      50.00000000      50.00000000       0.10000000       0.10000000       0.10000000       0.10000000       0.10000000       0.10000000       0.10000000       0.10000000       0.10000000       0.10000000
           0.10000000       0.10000000       0.10000000       0.10000000       0.10000000       0.10000000       0.10000000       0.10000000       0.10000000       0.10000000       0.10000000       0.10000000       0.10000000       0.10000000       0.10000000       0.10000000       0.10000000       0.10000000       0.10000000       0.10000000
           0.10000000       0.10000000       0.10000000       0.10000000       0.10000000       0.10000000       0.10000000       0.10000000       0.10000000       0.10000000       0.10000000       0.10000000       0.10000000       0.10000000       0.10000000       0.10000000       0.10000000       0.10000000       0.10000000       0.10000000
           0.10000000       0.10000000       0.10000000       0.10000000       0.10000000       0.10000000       0.10000000       0.10000000       0.10000000       0.10000000       0.10000000       0.10000000       0.10000000       0.10000000       0.10000000       0.10000000       0.10000000       0.10000000       0.10000000       0.10000000
           0.10000000       0.10000000       0.10000000       0.10000000       0.10000000       0.10000000       0.10000000       0.10000000       0.10000000       0.10000000       0.10000000       0.10000000       0.10000000       0.10000000      50.00000000      50.00000000      50.00000000      50.00000000       0.10000000       0.10000000
           0.10000000       0.10000000      50.00000000      50.00000000      50.00000000      50.00000000       0.10000000       0.10000000       0.10000000       0.10000000       0.10000000       0.10000000       0.10000000       0.10000000       0.10000000       0.10000000       0.10000000       0.10000000       0.10000000       0.10000000
           0.10000000       0.10000000       0.10000000       0.10000000       0.10000000       0.10000000       0.10000000       0.10000000       0.10000000       0.10000000       0.10000000       0.10000000       0.10000000      50.00000000       0.10000000       0.10000000       0.10000000       0.10000000       0.10000000      50.00000000
           0.10000000       0.10000000      50.00000000       0.10000000      50.00000000      50.00000000       0.50000000      50.00000000       0.50000000       0.10000000       0.10000000       0.10000000       0.50000000      50.00000000       0.50000000       0.10000000       0.10000000       0.50000000      50.00000000      50.00000000
          50.00000000      50.00000000       0.50000000       0.50000000      50.00000000      50.00000000       0.50000000       0.50000000       0.50000000       0.50000000       0.50000000      50.00000000      50.00000000      50.00000000      50.00000000      50.00000000      50.00000000      50.00000000      50.00000000      50.00000000
          50.00000000      50.00000000       0.10000000       0.10000000      50.00000000      50.00000000      50.00000000      50.00000000      50.00000000      50.00000000      50.00000000      50.00000000      50.00000000      50.00000000      50.00000000      50.00000000      50.00000000      50.00000000      50.00000000      50.00000000
          50.00000000      50.00000000      50.00000000      50.00000000      50.00000000      50.00000000      50.00000000      50.00000000      50.00000000      50.00000000      50.00000000      50.00000000      50.00000000      50.00000000      50.00000000      50.00000000      50.00000000      50.00000000      50.00000000      50.00000000
          50.00000000      50.00000000       0.10000000      50.00000000       0.10000000       0.10000000       0.10000000      50.00000000      50.00000000      50.00000000      50.00000000      50.00000000      50.00000000      50.00000000       0.10000000       0.10000000       0.10000000       0.10000000       0.10000000       0.10000000
           0.10000000       0.10000000       0.10000000      50.00000000      50.00000000      50.00000000      50.00000000      50.00000000       0.50000000      50.00000000       0.50000000      50.00000000      50.00000000      50.00000000      50.00000000      50.00000000       0.50000000       0.50000000       0.50000000       0.50000000
           0.50000000       0.10000000       0.50000000       0.10000000      50.00000000      50.00000000       0.10000000      50.00000000       0.10000000       0.10000000      50.00000000      50.00000000      50.00000000      50.00000000       0.10000000       0.10000000       0.10000000       0.10000000       0.10000000       0.10000000
           0.10000000       0.10000000      50.00000000       0.10000000      50.00000000      50.00000000      50.00000000      50.00000000      50.00000000      50.00000000       0.10000000       0.10000000       0.10000000       0.10000000       0.10000000       0.10000000       0.10000000       0.10000000       0.10000000       0.10000000