BEGIN options
  BOUNDNAMES
  SAVE_FLOWS
  OBS6  FILEIN  DC_MF6.chd.obs
END options

BEGIN dimensions
  MAXBOUND  4
END dimensions

BEGIN period  1
  6 12268     401.00000000  southchd
  6 12271     401.00000000  southchd
  6 12272     401.00000000  southchd
  6 12283     401.00000000  southchd
END period  1

