BEGIN options
  TIME_UNITS  days
  START_DATE_TIME  2013-01-01
END options

BEGIN dimensions
  NPER  68
END dimensions

BEGIN perioddata
      31.00000000  31       1.00000000
      28.00000000  28       1.00000000
      31.00000000  31       1.00000000
      30.00000000  30       1.00000000
      31.00000000  31       1.00000000
      30.00000000  30       1.00000000
      31.00000000  31       1.00000000
      31.00000000  31       1.00000000
      30.00000000  30       1.00000000
      31.00000000  31       1.00000000
      30.00000000  30       1.00000000
      31.00000000  31       1.00000000
      31.00000000  31       1.00000000
      28.00000000  28       1.00000000
      31.00000000  31       1.00000000
      30.00000000  30       1.00000000
      31.00000000  31       1.00000000
      30.00000000  30       1.00000000
      31.00000000  31       1.00000000
      31.00000000  31       1.00000000
      30.00000000  30       1.00000000
      31.00000000  31       1.00000000
      30.00000000  30       1.00000000
      31.00000000  31       1.00000000
      31.00000000  31       1.00000000
      28.00000000  28       1.00000000
      31.00000000  31       1.00000000
      30.00000000  30       1.00000000
      31.00000000  31       1.00000000
      30.00000000  30       1.00000000
      31.00000000  31       1.00000000
      31.00000000  31       1.00000000
      30.00000000  30       1.00000000
      31.00000000  31       1.00000000
      30.00000000  30       1.00000000
      31.00000000  31       1.00000000
      31.00000000  31       1.00000000
      29.00000000  29       1.00000000
      31.00000000  31       1.00000000
      30.00000000  30       1.00000000
      31.00000000  31       1.00000000
      30.00000000  30       1.00000000
      31.00000000  31       1.00000000
      31.00000000  31       1.00000000
      30.00000000  30       1.00000000
      31.00000000  31       1.00000000
      30.00000000  30       1.00000000
      31.00000000  31       1.00000000
      31.00000000  31       1.00000000
      28.00000000  28       1.00000000
      31.00000000  31       1.00000000
      30.00000000  30       1.00000000
      31.00000000  31       1.00000000
      30.00000000  30       1.00000000
      31.00000000  31       1.00000000
      31.00000000  31       1.00000000
      30.00000000  30       1.00000000
      31.00000000  31       1.00000000
      30.00000000  30       1.00000000
      31.00000000  31       1.00000000
      31.00000000  31       1.00000000
      28.00000000  28       1.00000000
      31.00000000  31       1.00000000
      30.00000000  30       1.00000000
      31.00000000  31       1.00000000
      30.00000000  30       1.00000000
      31.00000000  31       1.00000000
      31.00000000  31       1.00000000
END perioddata

