BEGIN options
  LENGTH_UNITS  meters
  XORIGIN  3.03000000E+05
  YORIGIN  3.30600000E+06
  ANGROT       0.00000000
END options

BEGIN dimensions
  NLAY  7
  NCPL  12347
  NVERT  12916
END dimensions

BEGIN griddata
  top
    INTERNAL  FACTOR  1.0
       672.07940674     680.84082031     680.08154297     665.34130859     675.52990723     673.57727051     662.26580811     653.12872314     666.63195801     660.44372559     671.02758789     653.30462646     640.67529297     652.04138184     654.39276123     643.86987305     643.92736816     644.30200195     657.71264648     644.65979004
       642.33691406     648.78283691     641.26300049     685.00000000     646.23205566     664.28460693     644.24993896     644.23999023     640.56671143     685.00000000     685.00000000     640.97979736     643.23858643     685.00000000     685.00000000     656.82562256     685.00000000     685.00000000     685.00000000     646.20416260
       641.23138428     647.66516113     640.18139648     641.58721924     685.00000000     685.00000000     641.64624023     640.35736084     685.00000000     643.69635010     640.89050293     685.00000000     685.00000000     685.00000000     685.00000000     685.00000000     685.00000000     685.00000000     641.32196045     685.00000000
       685.00000000     685.00000000     685.00000000     643.03930664     685.00000000     685.00000000     641.45050049     685.00000000     685.00000000     651.96215820     685.00000000     642.83239746     685.00000000     685.00000000     640.79534912     685.00000000     685.00000000     685.00000000     685.00000000     685.00000000
       685.00000000     685.00000000     685.00000000     685.00000000     685.00000000     685.00000000     685.00000000     685.00000000     685.00000000     685.00000000     685.00000000     685.00000000     685.00000000     685.00000000     685.00000000     647.14074707     642.55377197     641.12011719     685.00000000     685.00000000
       685.00000000     685.00000000     685.00000000     685.00000000     685.00000000     685.00000000     685.00000000     640.89178467     685.00000000     646.85528564     685.00000000     685.00000000     640.93017578     642.76544189     685.00000000     643.66949463     685.00000000     685.00000000     685.00000000     685.00000000
       685.00000000     685.00000000     685.00000000     685.00000000     685.00000000     685.00000000     685.00000000     685.00000000     685.00000000     685.00000000     685.00000000     685.00000000     685.00000000     685.00000000     685.00000000     685.00000000     685.00000000     685.00000000     685.00000000     685.00000000
       641.23168945     685.00000000     685.00000000     643.00848389     644.33636475     640.80334473     685.00000000     685.00000000     685.00000000     685.00000000     685.00000000     685.00000000     685.00000000     685.00000000     685.00000000     685.00000000     685.00000000     685.00000000     685.00000000     685.00000000
       649.07867432     647.19409180     685.00000000     685.00000000     685.00000000     685.00000000     685.00000000     685.00000000     685.00000000     685.00000000     685.00000000     685.00000000     685.00000000     685.00000000     685.00000000     685.00000000     685.00000000     685.00000000     641.38287354     685.00000000
       685.00000000     685.00000000     685.00000000     685.00000000     685.00000000     685.00000000     685.00000000     685.00000000     685.00000000     685.00000000     685.00000000     685.00000000     643.11383057     685.00000000     685.00000000     685.00000000     685.00000000     685.00000000     685.00000000     685.00000000
       685.00000000     685.00000000     685.00000000     685.00000000     685.00000000     685.00000000     685.00000000     685.00000000     685.00000000     685.00000000     685.00000000     685.00000000     685.00000000     685.00000000     685.00000000     685.00000000     685.00000000     685.00000000     685.00000000     685.00000000
       640.49096680     685.00000000     685.00000000     643.96472168     642.16583252     642.70477295     685.00000000     685.00000000     685.00000000     685.00000000     685.00000000     643.20349121     642.99993896     685.00000000     641.25250244     642.92706299     640.93957520     685.00000000     685.00000000     642.72814941
       685.00000000     685.00000000     685.00000000     685.00000000     685.00000000     685.00000000     685.00000000     685.00000000     685.00000000     685.00000000     685.00000000     685.00000000     685.00000000     685.00000000     685.00000000     685.00000000     685.00000000     685.00000000     685.00000000     685.00000000
       685.00000000     685.00000000     685.00000000     685.00000000     685.00000000     640.32983398     685.00000000     650.08856201     685.00000000     685.00000000     641.34326172     685.00000000     685.00000000     640.76501465     640.04052734     685.00000000     685.00000000     685.00000000     685.00000000     685.00000000
       685.00000000     685.00000000     685.00000000     685.00000000     685.00000000     685.00000000     685.00000000     685.00000000     685.00000000     685.00000000     685.00000000     685.00000000     685.00000000     685.00000000     685.00000000     685.00000000     685.00000000     685.00000000     685.00000000     685.00000000
       685.00000000     685.00000000     685.00000000     685.00000000     685.00000000     685.00000000     685.00000000     685.00000000     685.00000000     685.00000000     685.00000000     685.00000000     685.00000000     685.00000000     685.00000000     685.00000000     685.00000000     685.00000000     685.00000000     685.00000000
       685.00000000     685.00000000     685.00000000     685.00000000     685.00000000     685.00000000     685.00000000     685.00000000     685.00000000     685.00000000     685.00000000     685.00000000     685.00000000     685.00000000     685.00000000     685.00000000     685.00000000     685.00000000     644.67535400     685.00000000
       685.00000000     685.00000000     685.00000000     685.00000000     643.53887939     641.13897705     644.70227051     685.00000000     685.00000000     642.69903564     685.00000000     685.00000000     641.66882324     685.00000000     685.00000000     685.00000000     685.00000000     685.00000000     685.00000000     685.00000000
       685.00000000     685.00000000     685.00000000     685.00000000     685.00000000     685.00000000     685.00000000     685.00000000     685.00000000     685.00000000     685.00000000     685.00000000     685.00000000     685.00000000     685.00000000     685.00000000     685.00000000     642.48406982     685.00000000     685.00000000
       685.00000000     685.00000000     685.00000000     685.00000000     685.00000000     685.00000000     685.00000000     685.00000000     685.00000000     685.00000000     685.00000000     685.00000000     685.00000000     685.00000000     685.00000000     685.00000000     685.00000000     685.00000000     685.00000000     685.00000000
       685.00000000     685.00000000     685.00000000     640.59045410     685.00000000     685.00000000     685.00000000     685.00000000     685.00000000     647.17462158     685.00000000     648.42236328     685.00000000     642.58752441     685.00000000     685.00000000     643.01928711     685.00000000     685.00000000     685.00000000
       685.00000000     685.00000000     685.00000000     685.00000000     685.00000000     642.69415283     685.00000000     685.00000000     685.00000000     685.00000000     640.98937988     685.00000000     685.00000000     685.00000000     685.00000000     685.00000000     685.00000000     685.00000000     685.00000000     685.00000000
       685.00000000     685.00000000     685.00000000     685.00000000     685.00000000     685.00000000     685.00000000     685.00000000     685.00000000     685.00000000     685.00000000     685.00000000     685.00000000     685.00000000     685.00000000     685.00000000     685.00000000     685.00000000     685.00000000     685.00000000
       685.00000000     685.00000000     685.00000000     685.00000000     685.00000000     685.00000000     685.00000000     685.00000000     685.00000000     685.00000000     685.00000000     685.00000000     685.00000000     685.00000000     685.00000000     685.00000000     685.00000000     685.00000000     685.00000000     685.00000000
       685.00000000     685.00000000     685.00000000     685.00000000     685.00000000     685.00000000     685.00000000     685.00000000     685.00000000     685.00000000     685.00000000     685.00000000     685.00000000     685.00000000     685.00000000     685.00000000     685.00000000     685.00000000     685.00000000     685.00000000
       685.00000000     685.00000000     685.00000000     685.00000000     685.00000000     685.00000000     685.00000000     685.00000000     685.00000000     685.00000000     685.00000000     685.00000000     685.00000000     685.00000000     685.00000000     685.00000000     685.00000000     685.00000000     685.00000000     685.00000000
       685.00000000     685.00000000     685.00000000     685.00000000     685.00000000     685.00000000     685.00000000     685.00000000     685.00000000     685.00000000     685.00000000     685.00000000     685.00000000     685.00000000     685.00000000     685.00000000     685.00000000     685.00000000     685.00000000     685.00000000
       685.00000000     685.00000000     685.00000000     685.00000000     685.00000000     685.00000000     685.00000000     685.00000000     685.00000000     685.00000000     685.00000000     685.00000000     685.00000000     685.00000000     685.00000000     685.00000000     685.00000000     642.65942383     685.00000000     642.09478760
       685.00000000     685.00000000     685.00000000     685.00000000     685.00000000     685.00000000     685.00000000     685.00000000     642.83496094     685.00000000     645.63879395     643.33050537     641.39630127     685.00000000     643.26245117     640.65582275     685.00000000     640.18286133     685.00000000     685.00000000
       685.00000000     640.61236572     685.00000000     643.15234375     685.00000000     685.00000000     685.00000000     685.00000000     643.53161621     685.00000000     646.85949707     645.78424072     685.00000000     643.75500488     640.33142090     645.96740723     648.03887939     685.00000000     648.26135254     644.35803223
       648.74114990     647.91357422     685.00000000     645.62506104     647.42889404     685.00000000     685.00000000     685.00000000     685.00000000     642.60095215     685.00000000     685.00000000     685.00000000     685.00000000     685.00000000     685.00000000     685.00000000     685.00000000     685.00000000     685.00000000
       685.00000000     685.00000000     685.00000000     685.00000000     685.00000000     685.00000000     685.00000000     685.00000000     685.00000000     685.00000000     685.00000000     685.00000000     685.00000000     685.00000000     685.00000000     685.00000000     685.00000000     685.00000000     685.00000000     685.00000000
       685.00000000     685.00000000     685.00000000     685.00000000     685.00000000     685.00000000     685.00000000     685.00000000     685.00000000     685.00000000     685.00000000     685.00000000     685.00000000     685.00000000     685.00000000     685.00000000     685.00000000     685.00000000     640.35894775     685.00000000
       640.65106201     685.00000000     685.00000000     685.00000000     685.00000000     685.00000000     685.00000000     685.00000000     685.00000000     641.68664551     641.60021973     685.00000000     643.44763184     685.00000000     685.00000000     685.00000000     685.00000000     685.00000000     685.00000000     685.00000000
       685.00000000     685.00000000     641.79437256     685.00000000     685.00000000     685.00000000     685.00000000     685.00000000     685.00000000     685.00000000     685.00000000     685.00000000     685.00000000     685.00000000     685.00000000     685.00000000     685.00000000     685.00000000     685.00000000     685.00000000
       685.00000000     685.00000000     685.00000000     685.00000000     685.00000000     685.00000000     685.00000000     685.00000000     685.00000000     685.00000000     685.00000000     685.00000000     685.00000000     685.00000000     685.00000000     685.00000000     685.00000000     685.00000000     685.00000000     685.00000000
       685.00000000     685.00000000     685.00000000     685.00000000     685.00000000     685.00000000     685.00000000     685.00000000     685.00000000     685.00000000     685.00000000     685.00000000     685.00000000     685.00000000     685.00000000     685.00000000     685.00000000     685.00000000     685.00000000     685.00000000
       685.00000000     685.00000000     685.00000000     685.00000000     685.00000000     685.00000000     685.00000000     685.00000000     685.00000000     685.00000000     685.00000000     685.00000000     685.00000000     685.00000000     685.00000000     685.00000000     685.00000000     685.00000000     685.00000000     685.00000000
       685.00000000     685.00000000     685.00000000     685.00000000     685.00000000     685.00000000     685.00000000     685.00000000     685.00000000     685.00000000     685.00000000     685.00000000     685.00000000     685.00000000     685.00000000     685.00000000     685.00000000     685.00000000     685.00000000     685.00000000
       685.00000000     685.00000000     685.00000000     685.00000000     685.00000000     685.00000000     685.00000000     685.00000000     685.00000000     685.00000000     685.00000000     685.00000000     685.00000000     685.00000000     685.00000000     685.00000000     685.00000000     685.00000000     685.00000000     685.00000000
       685.00000000     685.00000000     685.00000000     685.00000000     685.00000000     685.00000000     685.00000000     685.00000000     685.00000000     685.00000000     685.00000000     685.00000000     685.00000000     685.00000000     685.00000000     685.00000000     685.00000000     685.00000000     685.00000000     685.00000000
       685.00000000     685.00000000     685.00000000     685.00000000     685.00000000     685.00000000     685.00000000     685.00000000     685.00000000     685.00000000     685.00000000     685.00000000     685.00000000     685.00000000     685.00000000     685.00000000     685.00000000     685.00000000     685.00000000     685.00000000
       685.00000000     685.00000000     685.00000000     685.00000000     685.00000000     685.00000000     685.00000000     685.00000000     685.00000000     685.00000000     685.00000000     685.00000000     685.00000000     685.00000000     685.00000000     685.00000000     685.00000000     685.00000000     685.00000000     685.00000000
       685.00000000     685.00000000     685.00000000     685.00000000     685.00000000     685.00000000     685.00000000     685.00000000     685.00000000     685.00000000     685.00000000     685.00000000     685.00000000     685.00000000     685.00000000     685.00000000     685.00000000     685.00000000     685.00000000     685.00000000
       685.00000000     685.00000000     685.00000000     685.00000000     685.00000000     685.00000000     685.00000000     685.00000000     685.00000000     685.00000000     685.00000000     685.00000000     685.00000000     685.00000000     685.00000000     685.00000000     685.00000000     685.00000000     685.00000000     685.00000000
       685.00000000     685.00000000     685.00000000     685.00000000     685.00000000     685.00000000     685.00000000     685.00000000     685.00000000     685.00000000     685.00000000     685.00000000     685.00000000     685.00000000     685.00000000     685.00000000     685.00000000     685.00000000     685.00000000     685.00000000
       685.00000000     685.00000000     685.00000000     685.00000000     685.00000000     685.00000000     685.00000000     685.00000000     685.00000000     685.00000000     685.00000000     685.00000000     685.00000000     685.00000000     685.00000000     685.00000000     685.00000000     685.00000000     685.00000000     685.00000000
       643.83618164     685.00000000     643.11297607     685.00000000     685.00000000     685.00000000     685.00000000     685.00000000     685.00000000     685.00000000     685.00000000     685.00000000     640.52941895     685.00000000     685.00000000     641.07366943     685.00000000     685.00000000     685.00000000     685.00000000
       685.00000000     685.00000000     685.00000000     685.00000000     685.00000000     685.00000000     685.00000000     685.00000000     640.97705078     644.32427979     685.00000000     685.00000000     685.00000000     640.29150391     643.07257080     642.41601562     685.00000000     685.00000000     685.00000000     685.00000000
       685.00000000     685.00000000     640.91204834     640.60473633     685.00000000     685.00000000     685.00000000     685.00000000     685.00000000     641.28985596     685.00000000     685.00000000     685.00000000     685.00000000     685.00000000     685.00000000     685.00000000     685.00000000     685.00000000     643.20996094
       685.00000000     685.00000000     685.00000000     685.00000000     685.00000000     685.00000000     685.00000000     685.00000000     644.40966797     685.00000000     685.00000000     685.00000000     685.00000000     685.00000000     685.00000000     685.00000000     685.00000000     685.00000000     685.00000000     685.00000000
       685.00000000     685.00000000     685.00000000     685.00000000     685.00000000     685.00000000     685.00000000     685.00000000     685.00000000     685.00000000     685.00000000     685.00000000     685.00000000     685.00000000     685.00000000     685.00000000     685.00000000     685.00000000     685.00000000     685.00000000
       685.00000000     685.00000000     685.00000000     685.00000000     685.00000000     685.00000000     685.00000000     685.00000000     685.00000000     685.00000000     685.00000000     685.00000000     685.00000000     685.00000000     685.00000000     685.00000000     685.00000000     685.00000000     640.54077148     685.00000000
       685.00000000     685.00000000     685.00000000     685.00000000     685.00000000     685.00000000     685.00000000     685.00000000     685.00000000     685.00000000     685.00000000     685.00000000     685.00000000     685.00000000     685.00000000     685.00000000     685.00000000     685.00000000     685.00000000     685.00000000
       685.00000000     685.00000000     685.00000000     685.00000000     685.00000000     685.00000000     685.00000000     685.00000000     685.00000000     685.00000000     685.00000000     685.00000000     685.00000000     685.00000000     685.00000000     685.00000000     685.00000000     685.00000000     685.00000000     685.00000000
       685.00000000     685.00000000     685.00000000     685.00000000     685.00000000     685.00000000     685.00000000     685.00000000     685.00000000     685.00000000     685.00000000     685.00000000     685.00000000     685.00000000     685.00000000     685.00000000     685.00000000     685.00000000     685.00000000     685.00000000
       685.00000000     685.00000000     685.00000000     685.00000000     685.00000000     685.00000000     685.00000000     685.00000000     685.00000000     685.00000000     685.00000000     685.00000000     685.00000000     685.00000000     685.00000000     685.00000000     685.00000000     685.00000000     685.00000000     685.00000000
       685.00000000     685.00000000     685.00000000     685.00000000     685.00000000     685.00000000     685.00000000     685.00000000     685.00000000     685.00000000     685.00000000     685.00000000     685.00000000     685.00000000     685.00000000     685.00000000     685.00000000     685.00000000     685.00000000     685.00000000
       685.00000000     685.00000000     685.00000000     685.00000000     685.00000000     685.00000000     685.00000000     685.00000000     685.00000000     685.00000000     685.00000000     685.00000000     685.00000000     685.00000000     685.00000000     685.00000000     685.00000000     685.00000000     685.00000000     685.00000000
       685.00000000     685.00000000     685.00000000     685.00000000     685.00000000     685.00000000     685.00000000     685.00000000     685.00000000     685.00000000     685.00000000     685.00000000     685.00000000     685.00000000     685.00000000     685.00000000     685.00000000     685.00000000     685.00000000     685.00000000
       685.00000000     685.00000000     685.00000000     685.00000000     685.00000000     685.00000000     685.00000000     685.00000000     685.00000000     685.00000000     685.00000000     685.00000000     685.00000000     685.00000000     685.00000000     685.00000000     685.00000000     685.00000000     685.00000000     685.00000000
       685.00000000     685.00000000     685.00000000     685.00000000     685.00000000     685.00000000     685.00000000     685.00000000     685.00000000     685.00000000     685.00000000     685.00000000     685.00000000     685.00000000     685.00000000     685.00000000     685.00000000     685.00000000     685.00000000     685.00000000
       685.00000000     685.00000000     685.00000000     685.00000000     685.00000000     685.00000000     685.00000000     685.00000000     685.00000000     685.00000000     685.00000000     685.00000000     685.00000000     685.00000000     685.00000000     685.00000000     685.00000000     685.00000000     685.00000000     685.00000000
       685.00000000     685.00000000     685.00000000     685.00000000     685.00000000     685.00000000     685.00000000     685.00000000     685.00000000     685.00000000     685.00000000     685.00000000     685.00000000     685.00000000     685.00000000     685.00000000     685.00000000     685.00000000     685.00000000     685.00000000
       685.00000000     685.00000000     685.00000000     685.00000000     685.00000000     685.00000000     685.00000000     685.00000000     685.00000000     685.00000000     685.00000000     685.00000000     685.00000000     685.00000000     685.00000000     685.00000000     685.00000000     685.00000000     685.00000000     685.00000000
       685.00000000     685.00000000     685.00000000     685.00000000     685.00000000     685.00000000     685.00000000     685.00000000     685.00000000     685.00000000     685.00000000     685.00000000     685.00000000     685.00000000     685.00000000     685.00000000     685.00000000     685.00000000     685.00000000     685.00000000
       685.00000000     685.00000000     685.00000000     685.00000000     685.00000000     640.05859375     685.00000000     641.31994629     644.14270020     640.80395508     685.00000000     685.00000000     685.00000000     685.00000000     685.00000000     641.36260986     685.00000000     685.00000000     685.00000000     685.00000000
       685.00000000     685.00000000     685.00000000     685.00000000     685.00000000     685.00000000     685.00000000     685.00000000     685.00000000     685.00000000     685.00000000     643.37280273     685.00000000     640.93750000     643.02667236     685.00000000     685.00000000     685.00000000     685.00000000     685.00000000
       685.00000000     685.00000000     685.00000000     645.02600098     648.61102295     685.00000000     641.87878418     643.83911133     685.00000000     685.00000000     685.00000000     685.00000000     641.55065918     641.04656982     642.65447998     685.00000000     643.87530518     641.95690918     685.00000000     685.00000000
       685.00000000     685.00000000     685.00000000     685.00000000     685.00000000     685.00000000     685.00000000     685.00000000     641.69891357     685.00000000     685.00000000     685.00000000     685.00000000     685.00000000     685.00000000     685.00000000     685.00000000     685.00000000     685.00000000     685.00000000
       685.00000000     685.00000000     685.00000000     685.00000000     685.00000000     685.00000000     685.00000000     685.00000000     685.00000000     685.00000000     685.00000000     685.00000000     685.00000000     685.00000000     685.00000000     685.00000000     685.00000000     685.00000000     685.00000000     685.00000000
       685.00000000     685.00000000     685.00000000     685.00000000     685.00000000     685.00000000     685.00000000     685.00000000     685.00000000     685.00000000     685.00000000     685.00000000     685.00000000     685.00000000     685.00000000     685.00000000     642.32318115     685.00000000     685.00000000     685.00000000
       685.00000000     685.00000000     685.00000000     685.00000000     685.00000000     685.00000000     685.00000000     685.00000000     685.00000000     685.00000000     685.00000000     685.00000000     685.00000000     685.00000000     640.80834961     640.49963379     642.38574219     644.84796143     685.00000000     641.81024170
       685.00000000     685.00000000     685.00000000     685.00000000     685.00000000     640.29180908     685.00000000     685.00000000     644.56726074     685.00000000     685.00000000     685.00000000     685.00000000     643.32336426     685.00000000     641.05511475     685.00000000     685.00000000     685.00000000     642.20703125
       685.00000000     685.00000000     685.00000000     685.00000000     685.00000000     685.00000000     685.00000000     685.00000000     685.00000000     685.00000000     685.00000000     685.00000000     685.00000000     685.00000000     685.00000000     685.00000000     685.00000000     685.00000000     685.00000000     685.00000000
       640.07244873     685.00000000     685.00000000     685.00000000     685.00000000     685.00000000     685.00000000     685.00000000     685.00000000     685.00000000     685.00000000     685.00000000     685.00000000     685.00000000     685.00000000     685.00000000     685.00000000     685.00000000     685.00000000     685.00000000
       685.00000000     685.00000000     685.00000000     685.00000000     685.00000000     685.00000000     685.00000000     685.00000000     685.00000000     685.00000000     685.00000000     685.00000000     685.00000000     685.00000000     685.00000000     685.00000000     685.00000000     685.00000000     685.00000000     685.00000000
       685.00000000     685.00000000     685.00000000     685.00000000     685.00000000     685.00000000     685.00000000     685.00000000     685.00000000     685.00000000     685.00000000     685.00000000     685.00000000     685.00000000     685.00000000     685.00000000     685.00000000     685.00000000     685.00000000     685.00000000
       685.00000000     685.00000000     685.00000000     685.00000000     685.00000000     685.00000000     685.00000000     685.00000000     685.00000000     685.00000000     685.00000000     685.00000000     685.00000000     685.00000000     685.00000000     685.00000000     685.00000000     685.00000000     685.00000000     685.00000000
       685.00000000     685.00000000     685.00000000     685.00000000     685.00000000     685.00000000     685.00000000     685.00000000     685.00000000     685.00000000     685.00000000     685.00000000     685.00000000     685.00000000     685.00000000     685.00000000     685.00000000     685.00000000     685.00000000     685.00000000
       685.00000000     685.00000000     685.00000000     685.00000000     685.00000000     685.00000000     685.00000000     685.00000000     685.00000000     685.00000000     685.00000000     685.00000000     685.00000000     685.00000000     685.00000000     685.00000000     685.00000000     685.00000000     685.00000000     685.00000000
       685.00000000     685.00000000     685.00000000     685.00000000     685.00000000     685.00000000     685.00000000     685.00000000     685.00000000     685.00000000     685.00000000     685.00000000     685.00000000     685.00000000     685.00000000     685.00000000     685.00000000     685.00000000     685.00000000     685.00000000
       685.00000000     685.00000000     685.00000000     685.00000000     685.00000000     685.00000000     685.00000000     685.00000000     685.00000000     685.00000000     685.00000000     685.00000000     685.00000000     685.00000000     685.00000000     685.00000000     685.00000000     685.00000000     685.00000000     685.00000000
       685.00000000     685.00000000     685.00000000     685.00000000     685.00000000     685.00000000     685.00000000     685.00000000     685.00000000     685.00000000     685.00000000     685.00000000     685.00000000     685.00000000     685.00000000     685.00000000     685.00000000     685.00000000     685.00000000     685.00000000
       685.00000000     685.00000000     685.00000000     685.00000000     685.00000000     685.00000000     685.00000000     685.00000000     685.00000000     685.00000000     685.00000000     685.00000000     685.00000000     685.00000000     685.00000000     685.00000000     685.00000000     685.00000000     685.00000000     685.00000000
       685.00000000     685.00000000     685.00000000     685.00000000     685.00000000     685.00000000     685.00000000     685.00000000     685.00000000     685.00000000     685.00000000     685.00000000     685.00000000     685.00000000     685.00000000     685.00000000     685.00000000     685.00000000     685.00000000     685.00000000