BEGIN options
END options

BEGIN timing
  TDIS6  DC_MF6.tdis
END timing

BEGIN models
  gwf6  DC_MF6.nam  dc_mf6
END models

BEGIN exchanges
END exchanges

BEGIN solutiongroup  1
  ims6  DC_MF6.ims  dc_mf6
END solutiongroup  1

