# File generated by Flopy version 3.3.5 on 12/08/2022 at 08:53:58.
BEGIN options
  BOUNDNAMES
  SAVE_FLOWS
  OBS6  FILEIN  MF6TBraat_cp.ghb.obs
END options

BEGIN dimensions
  MAXBOUND  797
END dimensions

BEGIN period  1
  19 142726     180.00000000       5.00000000  bfzart_north
  23 142726     150.00000000      15.00000000  bfzart_north
  28 142726     140.00000000       5.00000000  bfzart_north
  35 142726     120.00000000       5.00000000  bfzart_north
  38 142726     100.00000000      25.00000000  bfzart_north
  19 142724     140.00000000       5.00000000  bfzart_east
  19 142723     140.00000000       5.00000000  bfzart_east
  19 142720     140.00000000       5.00000000  bfzart_east
  19 142719     140.00000000       5.00000000  bfzart_east
  19 142716     140.00000000       5.00000000  bfzart_east
  19 142715     140.00000000       5.00000000  bfzart_east
  19 143849     140.00000000       5.00000000  bfzart_east
  23 143849     150.00000000       5.00000000  bfzart_east
  28 143849      90.00000000       5.00000000  bfzart_east
  35 143849      80.00000000       5.00000000  bfzart_east
  38 143849       0.00000000       5.00000000  bfzart_east
  17 143848     140.00000000       5.00000000  bfzart_east
  19 143847     140.00000000       5.00000000  bfzart_east
  19 143846     140.00000000       5.00000000  bfzart_east
  19 143845     140.00000000       5.00000000  bfzart_east
  19 143844     140.00000000       5.00000000  bfzart_east
  19 143843     140.00000000       5.00000000  bfzart_east
  19 143842     140.00000000       5.00000000  bfzart_east
  19 143841     140.00000000       5.00000000  bfzart_east
  19 143840     140.00000000       5.00000000  bfzart_east
  19 143839     140.00000000       5.00000000  bfzart_east
  19 143838     140.00000000       5.00000000  bfzart_east
  19 143837     140.00000000       5.00000000  bfzart_east
  19 143836     140.00000000       5.00000000  bfzart_east
  19 143835     140.00000000       5.00000000  bfzart_east
  23 143835     150.00000000       5.00000000  bfzart_east
  28 143835      90.00000000       5.00000000  bfzart_east
  35 143835      80.00000000       5.00000000  bfzart_east
  38 143835       0.00000000       5.00000000  bfzart_east
  19 143834     140.50000000       5.00000000  bfzart_east
  19 143831     140.00000000       5.00000000  bfzart_east
  19 143830     140.00000000       5.00000000  bfzart_east
  19 143827     140.00000000       5.00000000  bfzart_east
  19 143826     140.00000000       5.00000000  bfzart_east
  19 143823     140.00000000       5.00000000  bfzart_east
  19 143822     140.00000000       5.00000000  bfzart_east
  19 143819     140.00000000       5.00000000  bfzart_east
  19 143818     140.00000000       5.00000000  bfzart_east
  19 143815     140.00000000       5.00000000  bfzart_east
  19 143814     140.00000000       5.00000000  bfzart_east
  19 143811     140.00000000       5.00000000  bfzart_east
  19 143810     140.00000000       5.00000000  bfzart_east
  19 143807     140.00000000       5.00000000  bfzart_east
  19 144029     140.00000000       5.00000000  bfzart_east
  23 144029     150.00000000       5.00000000  bfzart_east
  28 144029      90.00000000       5.00000000  bfzart_east
  35 144029      80.00000000       5.00000000  bfzart_east
  38 144029       0.00000000       5.00000000  bfzart_east
  19 144028     140.00000000       5.00000000  bfzart_east
  19 144027     140.00000000       5.00000000  bfzart_east
  19 144026     140.00000000       5.00000000  bfzart_east
  19 144025     140.00000000       5.00000000  bfzart_east
  19 144024     140.00000000       5.00000000  bfzart_east
  19 144023     140.00000000       5.00000000  bfzart_east
  19 144022     140.00000000       5.00000000  bfzart_east
  19 144021     140.00000000       5.00000000  bfzart_east
  19 144020     140.00000000       5.00000000  bfzart_east
  23 144020     150.00000000       5.00000000  bfzart_east
  28 144020      90.00000000       5.00000000  bfzart_east
  35 144020      80.00000000       5.00000000  bfzart_east
  38 144020       0.00000000       5.00000000  bfzart_east
  19 144019     140.00000000       5.00000000  bfzart_east
  19 144018     140.00000000       5.00000000  bfzart_east
  19 144017     140.00000000       5.00000000  bfzart_east
  19 144016     140.00000000       5.00000000  bfzart_east
  19 144015     140.00000000       5.00000000  bfzart_east
  19 144014     140.00000000       5.00000000  bfzart_east
  19 144013     140.00000000       5.00000000  bfzart_east
  19 144012     140.00000000       5.00000000  bfzart_east
  19 144011     140.00000000       5.00000000  bfzart_east
  19 144010     140.00000000       5.00000000  bfzart_east
  19 144009     140.00000000       5.00000000  bfzart_east
  19 144006     140.00000000       5.00000000  bfzart_east
  19 144005     140.00000000       5.00000000  bfzart_east
  19 144002     140.00000000       5.00000000  bfzart_east
  19 144001     140.00000000       5.00000000  bfzart_east
  19 143998     140.00000000       5.00000000  bfzart_east
  19 143997     140.00000000       5.00000000  bfzart_east
  19 143994     140.00000000       5.00000000  bfzart_east
  23 143994     150.00000000       5.00000000  bfzart_east
  28 143994      90.00000000       5.00000000  bfzart_east
  35 143994      80.00000000       5.00000000  bfzart_east
  38 143994       0.00000000       5.00000000  bfzart_east
  19 143993     140.00000000       5.00000000  bfzart_east
  19 143992     140.00000000       5.00000000  bfzart_east
  19 143983     140.00000000       5.00000000  bfzart_east
  19 143982     140.00000000       5.00000000  bfzart_east
  19 143981     140.00000000       5.00000000  bfzart_east
  19 143980     140.00000000       5.00000000  bfzart_east
  19 143971     140.00000000       5.00000000  bfzart_east
  19 143970     140.00000000       5.00000000  bfzart_east
  19 143969     140.00000000       5.00000000  bfzart_east
  19 143968     140.00000000       5.00000000  bfzart_east
  19 143959     140.00000000       5.00000000  bfzart_east
  19 143958     140.00000000       5.00000000  bfzart_east
  19 143957     140.00000000       5.00000000  bfzart_east
  19 143956     140.00000000       5.00000000  bfzart_east
  19 143947     140.00000000       5.00000000  bfzart_east
  19 143946     140.00000000       5.00000000  bfzart_east
  19 143945     140.00000000       5.00000000  bfzart_east
  19 143944     140.00000000       5.00000000  bfzart_east
  19 143935     140.00000000       5.00000000  bfzart_east
  19 143934     140.00000000       5.00000000  bfzart_east
  19 143933     140.00000000       5.00000000  bfzart_east
  19 143932     140.00000000       5.00000000  bfzart_east
  19 143923     140.00000000       5.00000000  bfzart_east
  19 143922     140.00000000       5.00000000  bfzart_east
  19 143921     140.00000000       5.00000000  bfzart_east
  19 143920     140.00000000       5.00000000  bfzart_east
  19 143911     140.00000000       5.00000000  bfzart_east
  19 143910     140.00000000       5.00000000  bfzart_east
  23 143910     150.00000000       5.00000000  bfzart_east
  28 143910      90.00000000       5.00000000  bfzart_east
  35 143910      80.00000000       5.00000000  bfzart_east
  38 143910       0.00000000       5.00000000  bfzart_east
  19 143905     140.00000000       5.00000000  bfzart_east
  19 143904     140.00000000       5.00000000  bfzart_east
  19 143901     140.00000000       5.00000000  bfzart_east
  19 143900     140.00000000       5.00000000  bfzart_east
  19 143897     140.00000000       5.00000000  bfzart_east
  19 143896     140.00000000       5.00000000  bfzart_east
  19 143893     140.00000000       5.00000000  bfzart_east
  19 143892     105.00000000       5.00000000  bfzart_east
  19 143889     140.00000000       5.00000000  bfzart_east
  19 143888     140.00000000       5.00000000  bfzart_east
  19 143885     140.00000000       5.00000000  bfzart_east
  19 143884     140.00000000       5.00000000  bfzart_east
  19 143881     140.00000000       5.00000000  bfzart_east
  19 143880     140.00000000       5.00000000  bfzart_east
  19 143877     140.00000000       5.00000000  bfzart_east
  19 143876     140.00000000       5.00000000  bfzart_east
  19 143873     140.00000000       5.00000000  bfzart_east
  19 143872     140.00000000       5.00000000  bfzart_east
  19 143869     140.00000000       5.00000000  bfzart_east
  19 143868     140.00000000       5.00000000  bfzart_east
  19 143865     140.00000000       5.00000000  bfzart_east
  19 143864     140.00000000       5.00000000  bfzart_east
  19 143861     140.00000000       5.00000000  bfzart_east
  19 143860     140.00000000       5.00000000  bfzart_east
  19 143859     140.00000000       5.00000000  bfzart_east
  23 143859     150.00000000       5.00000000  bfzart_east
  28 143859      90.00000000       5.00000000  bfzart_east
  35 143859      80.00000000       5.00000000  bfzart_east
  38 143859       0.00000000       5.00000000  bfzart_east
  19 143858     140.00000000       5.00000000  bfzart_east
  19 143857     140.00000000       5.00000000  bfzart_east
  19 143856     140.00000000       5.00000000  bfzart_east
  19 143855     140.00000000       5.00000000  bfzart_east
  19 143854     140.00000000       5.00000000  bfzart_east
  19 143853     140.00000000       5.00000000  bfzart_east
  19 143852     140.00000000       5.00000000  bfzart_east
  19 143851     140.00000000       5.00000000  bfzart_east
  19 143850     140.00000000       5.00000000  bfzart_east
  23 143850     150.00000000       5.00000000  bfzart_east
  28 143850      90.00000000       5.00000000  bfzart_east
  35 143850      80.00000000       5.00000000  bfzart_east
  38 143850       0.00000000       5.00000000  bfzart_east
  19 142789     140.00000000       5.00000000  bfzart_east
  19 142778     140.00000000       5.00000000  bfzart_east
  19 142777     140.00000000       5.00000000  bfzart_east
  19 142774     140.00000000       5.00000000  bfzart_east
  19 142773     140.00000000       5.00000000  bfzart_east
  19 142762     140.00000000       5.00000000  bfzart_east
  19 142761     140.00000000       5.00000000  bfzart_east
  19 142758     140.00000000       5.00000000  bfzart_east
  19 142752     140.00000000       5.00000000  bfzart_east
  19 142751     140.00000000       5.00000000  bfzart_east
  19 142748     140.00000000       5.00000000  bfzart_east
  19 142747     140.00000000       5.00000000  bfzart_east
  19 142744     140.00000000       5.00000000  bfzart_east
  19 142743     140.00000000       5.00000000  bfzart_east
  19 142740     140.00000000       5.00000000  bfzart_east
  19 142739     140.00000000       5.00000000  bfzart_east
  19 142736     140.00000000       5.00000000  bfzart_east
  19 142735     140.00000000       5.00000000  bfzart_east
  19 142732     140.00000000       5.00000000  bfzart_east
  19 142731     140.00000000       5.00000000  bfzart_east
  19 142730     140.00000000       5.00000000  bfzart_east
  19 142729     140.00000000       5.00000000  bfzart_east
  19 142728     140.00000000       5.00000000  bfzart_east
  19 133120     200.00000000       5.00000000  bfzart_south
  23 133120     200.00000000       5.00000000  bfzart_south
  28 133120     180.00000000       5.00000000  bfzart_south
  35 133120     170.00000000       5.00000000  bfzart_south
  38 133120     150.00000000       5.00000000  bfzart_south
  19 135015     200.00000000       5.00000000  bfzart_south
  23 135015     200.00000000       5.00000000  bfzart_south
  28 135015     180.00000000       5.00000000  bfzart_south
  35 135015     170.00000000       5.00000000  bfzart_south
  38 135015     150.00000000       5.00000000  bfzart_south
  19 136517     200.00000000       5.00000000  bfzart_south
  23 136517     200.00000000       5.00000000  bfzart_south
  28 136517     180.00000000       5.00000000  bfzart_south
  35 136517     170.00000000       5.00000000  bfzart_south
  38 136517     150.00000000       5.00000000  bfzart_south
  19 137734     200.00000000       5.00000000  bfzart_south
  23 137734     200.00000000       5.00000000  bfzart_south
  28 137734     180.00000000       5.00000000  bfzart_south
  35 137734     170.00000000       5.00000000  bfzart_south
  38 137734     150.00000000       5.00000000  bfzart_south
  19 138921     200.00000000       5.00000000  bfzart_south
  23 138921     200.00000000       5.00000000  bfzart_south
  28 138921     180.00000000       5.00000000  bfzart_south
  35 138921     170.00000000       5.00000000  bfzart_south
  38 138921     150.00000000       5.00000000  bfzart_south
  19 139955     200.00000000       5.00000000  bfzart_south
  23 139955     200.00000000       5.00000000  bfzart_south
  28 139955     180.00000000       5.00000000  bfzart_south
  35 139955     170.00000000       5.00000000  bfzart_south
  38 139955     150.00000000       5.00000000  bfzart_south
  19 140902     200.00000000       5.00000000  bfzart_south
  23 140902     200.00000000       5.00000000  bfzart_south
  28 140902     180.00000000       5.00000000  bfzart_south
  35 140902     170.00000000       5.00000000  bfzart_south
  38 140902     150.00000000       5.00000000  bfzart_south
  19 141789     200.00000000       5.00000000  bfzart_south
  23 141789     200.00000000       5.00000000  bfzart_south
  28 141789     180.00000000       5.00000000  bfzart_south
  35 141789     170.00000000       5.00000000  bfzart_south
  38 141789     150.00000000       5.00000000  bfzart_south
  19 142727     200.00000000       5.00000000  bfzart_south
  23 142727     200.00000000       5.00000000  bfzart_south
  28 142727     180.00000000       5.00000000  bfzart_south
  35 142727     170.00000000       5.00000000  bfzart_south
  38 142727     150.00000000       5.00000000  bfzart_south
  19 113214     180.00000000       5.00000000  bfzart_north
  23 113214     150.00000000      15.00000000  bfzart_north
  28 113214     140.00000000       5.00000000  bfzart_north
  35 113214     120.00000000       5.00000000  bfzart_north
  38 113214     100.00000000      25.00000000  bfzart_north
  19 116203     180.00000000       5.00000000  bfzart_north
  23 116203     150.00000000      15.00000000  bfzart_north
  28 116203     140.00000000       5.00000000  bfzart_north
  35 116203     120.00000000       5.00000000  bfzart_north
  38 116203     100.00000000      25.00000000  bfzart_north
  19 116205     164.00000000       5.00000000  bfzart_north
  23 116205     164.00000000      15.00000000  bfzart_north
  28 116205     164.00000000       5.00000000  bfzart_north
  35 116205     164.00000000       5.00000000  bfzart_north
  38 116205     150.00000000      25.00000000  bfzart_north
  19 118576     164.00000000       5.00000000  bfzart_north
  23 118576     164.00000000      15.00000000  bfzart_north
  28 118576     164.00000000       5.00000000  bfzart_north
  35 118576     164.00000000       5.00000000  bfzart_north
  38 118576     150.00000000      25.00000000  bfzart_north
  19 118578     164.00000000       5.00000000  bfzart_north
  23 118578     164.00000000      15.00000000  bfzart_north
  28 118578     164.00000000       5.00000000  bfzart_north
  35 118578     164.00000000       5.00000000  bfzart_north
  38 118578     150.00000000      25.00000000  bfzart_north
  19 120289     180.00000000       5.00000000  bfzart_north
  23 120289     150.00000000      15.00000000  bfzart_north
  28 120289     140.00000000       5.00000000  bfzart_north
  35 120289     120.00000000       5.00000000  bfzart_north
  38 120289     100.00000000      25.00000000  bfzart_north
  19 120290     180.00000000       5.00000000  bfzart_north
  23 120290     150.00000000      15.00000000  bfzart_north
  28 120290     140.00000000       5.00000000  bfzart_north
  35 120290     120.00000000       5.00000000  bfzart_north
  38 120290     100.00000000      25.00000000  bfzart_north
  19 121571     180.00000000       5.00000000  bfzart_north
  23 121571     150.00000000      15.00000000  bfzart_north
  28 121571     140.00000000       5.00000000  bfzart_north
  35 121571     120.00000000       5.00000000  bfzart_north
  38 121571     100.00000000      25.00000000  bfzart_north
  19 121572     180.00000000       5.00000000  bfzart_north
  23 121572     150.00000000      15.00000000  bfzart_north
  28 121572     140.00000000       5.00000000  bfzart_north
  35 121572     120.00000000       5.00000000  bfzart_north
  38 121572     100.00000000      25.00000000  bfzart_north
  19 122772     180.00000000       5.00000000  bfzart_north
  23 122772     150.00000000      15.00000000  bfzart_north
  28 122772     140.00000000       5.00000000  bfzart_north
  35 122772     120.00000000       5.00000000  bfzart_north
  38 122772     100.00000000      25.00000000  bfzart_north
  19 122773     180.00000000       5.00000000  bfzart_north
  23 122773     150.00000000      15.00000000  bfzart_north
  28 122773     140.00000000       5.00000000  bfzart_north
  35 122773     120.00000000       5.00000000  bfzart_north
  38 122773     100.00000000      25.00000000  bfzart_north
  19 124048     180.00000000       5.00000000  bfzart_north
  23 124048     150.00000000      15.00000000  bfzart_north
  28 124048     140.00000000       5.00000000  bfzart_north
  35 124048     120.00000000       5.00000000  bfzart_north
  38 124048     100.00000000      25.00000000  bfzart_north
  19 124049     180.00000000       5.00000000  bfzart_north
  23 124049     150.00000000      15.00000000  bfzart_north
  28 124049     140.00000000       5.00000000  bfzart_north
  35 124049     120.00000000       5.00000000  bfzart_north
  38 124049     100.00000000      25.00000000  bfzart_north
  19 125514     180.00000000       5.00000000  bfzart_north
  23 125514     150.00000000      15.00000000  bfzart_north
  28 125514     140.00000000       5.00000000  bfzart_north
  35 125514     120.00000000       5.00000000  bfzart_north
  38 125514     100.00000000      25.00000000  bfzart_north
  19 125516     180.00000000       5.00000000  bfzart_north
  23 125516     150.00000000      15.00000000  bfzart_north
  28 125516     140.00000000       5.00000000  bfzart_north
  35 125516     120.00000000       5.00000000  bfzart_north
  38 125516     100.00000000      25.00000000  bfzart_north
  19 127125     180.00000000       5.00000000  bfzart_north
  23 127125     150.00000000      15.00000000  bfzart_north
  28 127125     140.00000000       5.00000000  bfzart_north
  35 127125     120.00000000       5.00000000  bfzart_north
  38 127125     100.00000000      25.00000000  bfzart_north
  19 127127     180.00000000       5.00000000  bfzart_north
  23 127127     150.00000000      15.00000000  bfzart_north
  28 127127     140.00000000       5.00000000  bfzart_north
  35 127127     120.00000000       5.00000000  bfzart_north
  38 127127     100.00000000      25.00000000  bfzart_north
  19 128928     180.00000000       5.00000000  bfzart_north
  23 128928     150.00000000      15.00000000  bfzart_north
  28 128928     140.00000000       5.00000000  bfzart_north
  35 128928     120.00000000       5.00000000  bfzart_north
  38 128928     100.00000000      25.00000000  bfzart_north
  19 128930     180.00000000       5.00000000  bfzart_north
  23 128930     150.00000000      15.00000000  bfzart_north
  28 128930     140.00000000       5.00000000  bfzart_north
  35 128930     120.00000000       5.00000000  bfzart_north
  38 128930     100.00000000      25.00000000  bfzart_north
  19 131082     180.00000000       5.00000000  bfzart_north
  23 131082     150.00000000      15.00000000  bfzart_north
  28 131082     140.00000000       5.00000000  bfzart_north
  35 131082     120.00000000       5.00000000  bfzart_north
  38 131082     100.00000000      25.00000000  bfzart_north
  19 131084     180.00000000       5.00000000  bfzart_north
  23 131084     150.00000000      15.00000000  bfzart_north
  28 131084     140.00000000       5.00000000  bfzart_north
  35 131084     120.00000000       5.00000000  bfzart_north
  38 131084     100.00000000      25.00000000  bfzart_north
  19 133116     180.00000000       5.00000000  bfzart_north
  23 133116     150.00000000      15.00000000  bfzart_north
  28 133116     140.00000000       5.00000000  bfzart_north
  35 133116     120.00000000       5.00000000  bfzart_north
  38 133116     100.00000000      25.00000000  bfzart_north
  19 133119     180.00000000       5.00000000  bfzart_north
  23 133119     150.00000000      15.00000000  bfzart_north
  28 133119     140.00000000       5.00000000  bfzart_north
  35 133119     120.00000000       5.00000000  bfzart_north
  38 133119     100.00000000      25.00000000  bfzart_north
  19 135013     180.00000000       5.00000000  bfzart_north
  23 135013     150.00000000      15.00000000  bfzart_north
  28 135013     140.00000000       5.00000000  bfzart_north
  35 135013     120.00000000       5.00000000  bfzart_north
  38 135013     100.00000000      25.00000000  bfzart_north
  19 135014     180.00000000       5.00000000  bfzart_north
  23 135014     150.00000000      15.00000000  bfzart_north
  28 135014     140.00000000       5.00000000  bfzart_north
  35 135014     120.00000000       5.00000000  bfzart_north
  38 135014     100.00000000      25.00000000  bfzart_north
  19 136515     180.00000000       5.00000000  bfzart_north
  23 136515     150.00000000      15.00000000  bfzart_north
  28 136515     140.00000000       5.00000000  bfzart_north
  35 136515     120.00000000       5.00000000  bfzart_north
  38 136515     100.00000000      25.00000000  bfzart_north
  19 136516     180.00000000       5.00000000  bfzart_north
  23 136516     150.00000000      15.00000000  bfzart_north
  28 136516     140.00000000       5.00000000  bfzart_north
  35 136516     120.00000000       5.00000000  bfzart_north
  38 136516     100.00000000      25.00000000  bfzart_north
  19 137732     180.00000000       5.00000000  bfzart_north
  23 137732     150.00000000      15.00000000  bfzart_north
  28 137732     140.00000000       5.00000000  bfzart_north
  35 137732     120.00000000       5.00000000  bfzart_north
  38 137732     100.00000000      25.00000000  bfzart_north
  19 137733     180.00000000       5.00000000  bfzart_north
  23 137733     150.00000000      15.00000000  bfzart_north
  28 137733     140.00000000       5.00000000  bfzart_north
  35 137733     120.00000000       5.00000000  bfzart_north
  38 137733     100.00000000      25.00000000  bfzart_north
  19 138919     180.00000000       5.00000000  bfzart_north
  23 138919     150.00000000      15.00000000  bfzart_north
  28 138919     140.00000000       5.00000000  bfzart_north
  35 138919     120.00000000       5.00000000  bfzart_north
  38 138919     100.00000000      25.00000000  bfzart_north
  19 138920     180.00000000       5.00000000  bfzart_north
  23 138920     150.00000000      15.00000000  bfzart_north
  28 138920     140.00000000       5.00000000  bfzart_north
  35 138920     120.00000000       5.00000000  bfzart_north
  38 138920     100.00000000      25.00000000  bfzart_north
  19 139953     180.00000000       5.00000000  bfzart_north
  23 139953     150.00000000      15.00000000  bfzart_north
  28 139953     140.00000000       5.00000000  bfzart_north
  35 139953     120.00000000       5.00000000  bfzart_north
  38 139953     100.00000000      25.00000000  bfzart_north
  19 139954     180.00000000       5.00000000  bfzart_north
  23 139954     150.00000000      15.00000000  bfzart_north
  28 139954     140.00000000       5.00000000  bfzart_north
  35 139954     120.00000000       5.00000000  bfzart_north
  38 139954     100.00000000      25.00000000  bfzart_north
  19 140900     180.00000000       5.00000000  bfzart_north
  23 140900     150.00000000      15.00000000  bfzart_north
  28 140900     140.00000000       5.00000000  bfzart_north
  35 140900     120.00000000       5.00000000  bfzart_north
  38 140900     100.00000000      25.00000000  bfzart_north
  19 140901     180.00000000       5.00000000  bfzart_north
  23 140901     150.00000000      15.00000000  bfzart_north
  28 140901     140.00000000       5.00000000  bfzart_north
  35 140901     120.00000000       5.00000000  bfzart_north
  38 140901     100.00000000      25.00000000  bfzart_north
  19 141787     180.00000000       5.00000000  bfzart_north
  23 141787     150.00000000      15.00000000  bfzart_north
  28 141787     140.00000000       5.00000000  bfzart_north
  35 141787     120.00000000       5.00000000  bfzart_north
  38 141787     100.00000000      25.00000000  bfzart_north
  19 141788     180.00000000       5.00000000  bfzart_north
  23 141788     150.00000000      15.00000000  bfzart_north
  28 141788     140.00000000       5.00000000  bfzart_north
  35 141788     120.00000000       5.00000000  bfzart_north
  38 141788     100.00000000      25.00000000  bfzart_north
  19 142725     180.00000000       5.00000000  bfzart_north
  23 142725     150.00000000      15.00000000  bfzart_north
  28 142725     140.00000000       5.00000000  bfzart_north
  35 142725     120.00000000       5.00000000  bfzart_north
  38 142725     100.00000000      25.00000000  bfzart_north
  17 84054     195.00000000       5.00000000  bs_pool
  20 84054     195.00000000       5.00000000  bs_pool
  29 84054     170.00000000       5.00000000  bs_pool
  34 84054     150.00000000       5.00000000  bs_pool
  21 84056     170.00000000      10.00000000  bs_pool
  29 84056     170.00000000      10.00000000  bs_pool
  34 84056     150.00000000      15.00000000  bs_pool
  17 88284     170.00000000      15.00000000  bs_pool
  21 88284     170.00000000      10.00000000  bs_pool
  29 88284     170.00000000      10.00000000  bs_pool
  34 88284     150.00000000      15.00000000  bs_pool
  18 88286     170.00000000      15.00000000  bs_pool
  22 88286     170.00000000      10.00000000  bs_pool
  30 88286     170.00000000      10.00000000  bs_pool
  35 88286     150.00000000      15.00000000  bs_pool
  18 92444     170.00000000      15.00000000  bs_pool
  22 92444     170.00000000      10.00000000  bs_pool
  30 92444     170.00000000      10.00000000  bs_pool
  35 92444     150.00000000      15.00000000  bs_pool
  18 92447     170.00000000      15.00000000  bs_pool
  22 92447     170.00000000      10.00000000  bs_pool
  30 92447     170.00000000      10.00000000  bs_pool
  35 92447     150.00000000      15.00000000  bs_pool
  18 96107     170.00000000      15.00000000  bs_pool
  22 96107     170.00000000      10.00000000  bs_pool
  30 96107     170.00000000      10.00000000  bs_pool
  35 96107     150.00000000      15.00000000  bs_pool
  17 96108     180.00000000       5.00000000  bs_pool
  21 96108     170.00000000      15.00000000  bs_pool
  25 96108     170.00000000      10.00000000  bs_pool
  33 96108     170.00000000      10.00000000  bs_pool
  37 96108     150.00000000      15.00000000  bs_pool
  17 99288     170.00000000      15.00000000  bs_pool
  20 99288     170.00000000      15.00000000  bs_pool
  24 99288     170.00000000      10.00000000  bs_pool
  32 99288     170.00000000      10.00000000  bs_pool
  37 99288     150.00000000      15.00000000  bs_pool
  17 99289     180.00000000       5.00000000  bs_pool
  21 99289     170.00000000      15.00000000  bs_pool
  25 99289     170.00000000      10.00000000  bs_pool
  33 99289     170.00000000      10.00000000  bs_pool
  37 99289     150.00000000      15.00000000  bs_pool
  17 102034     180.00000000       5.00000000  bs_pool
  21 102034     170.00000000      15.00000000  bs_pool
  25 102034     170.00000000      10.00000000  bs_pool
  33 102034     170.00000000      10.00000000  bs_pool
  37 102034     150.00000000      15.00000000  bs_pool
  17 102035     180.00000000       5.00000000  bs_pool
  21 102035     170.00000000      15.00000000  bs_pool
  25 102035     170.00000000      10.00000000  bs_pool
  33 102035     170.00000000      10.00000000  bs_pool
  37 102035     150.00000000      15.00000000  bs_pool
  17 104960     180.00000000       5.00000000  bs_pool
  21 104960     170.00000000      15.00000000  bs_pool
  25 104960     170.00000000      10.00000000  bs_pool
  33 104960     170.00000000      10.00000000  bs_pool
  37 104960     150.00000000      15.00000000  bs_pool
  17 104961     180.00000000       5.00000000  bs_pool
  21 104961     170.00000000      15.00000000  bs_pool
  25 104961     170.00000000      10.00000000  bs_pool
  33 104961     170.00000000      10.00000000  bs_pool
  37 104961     150.00000000      15.00000000  bs_pool
  17 108961     180.00000000       5.00000000  bs_pool
  21 108961     170.00000000      15.00000000  bs_pool
  25 108961     170.00000000      10.00000000  bs_pool
  33 108961     170.00000000      10.00000000  bs_pool
  37 108961     150.00000000      15.00000000  bs_pool
  17 108963     180.00000000       5.00000000  bs_pool
  21 108963     170.00000000      15.00000000  bs_pool
  25 108963     170.00000000      10.00000000  bs_pool
  33 108963     170.00000000      10.00000000  bs_pool
  37 108963     150.00000000      15.00000000  bs_pool
  19 113212     180.00000000       5.00000000  bs_pool
  23 113212     170.00000000      15.00000000  bs_pool
  28 113212     170.00000000      10.00000000  bs_pool
  35 113212     170.00000000      10.00000000  bs_pool
  38 113212     150.00000000      15.00000000  bs_pool
  16 5008     185.00000000      10.00000000  bs_contrib
  19 5008     143.00000000      15.00000000  bs_contrib
  15 6432     255.00000000       5.00000000  bs_contrib
  20 6432     180.00000000      10.00000000  bs_contrib
  22 6432     143.00000000      15.00000000  bs_contrib
  15 8270     255.00000000       5.00000000  bs_contrib
  20 8270     180.00000000      10.00000000  bs_contrib
  22 8270     143.00000000      15.00000000  bs_contrib
  16 11221     185.00000000      10.00000000  bs_contrib
  19 11221     143.00000000      15.00000000  bs_contrib