# File generated by Flopy version 3.3.5 on 12/08/2022 at 08:55:12.
BEGIN options
  BUDGET  FILEOUT  MF6TBraat_cp.cbb
  HEAD  FILEOUT  MF6TBraat_cp.hds
  HEAD  PRINT_FORMAT  COLUMNS  10  WIDTH  15  DIGITS  6  GENERAL
END options

BEGIN period  1
  PRINT  BUDGET  LAST
END period  1

BEGIN period  2
  PRINT  BUDGET  LAST
END period  2

BEGIN period  3
  PRINT  BUDGET  LAST
END period  3

BEGIN period  4
  PRINT  BUDGET  LAST
END period  4

BEGIN period  5
  PRINT  BUDGET  LAST
END period  5

BEGIN period  6
  PRINT  BUDGET  LAST
END period  6

BEGIN period  7
  PRINT  BUDGET  LAST
END period  7

BEGIN period  8
  PRINT  BUDGET  LAST
END period  8

BEGIN period  9
  PRINT  BUDGET  LAST
END period  9

BEGIN period  10
  PRINT  BUDGET  LAST
END period  10

BEGIN period  11
  PRINT  BUDGET  LAST
END period  11

BEGIN period  12
  PRINT  BUDGET  LAST
END period  12

BEGIN period  13
  PRINT  BUDGET  LAST
END period  13

BEGIN period  14
  PRINT  BUDGET  LAST
END period  14

BEGIN period  15
  PRINT  BUDGET  LAST
END period  15

BEGIN period  16
  PRINT  BUDGET  LAST
END period  16

BEGIN period  17
  PRINT  BUDGET  LAST
END period  17

BEGIN period  18
  PRINT  BUDGET  LAST
END period  18

BEGIN period  19
  PRINT  BUDGET  LAST
END period  19

BEGIN period  20
  PRINT  BUDGET  LAST
END period  20

BEGIN period  21
  PRINT  BUDGET  LAST
END period  21

BEGIN period  22
  PRINT  BUDGET  LAST
END period  22

BEGIN period  23
  PRINT  BUDGET  LAST
END period  23

BEGIN period  24
  PRINT  BUDGET  LAST
END period  24

BEGIN period  25
  PRINT  BUDGET  LAST
END period  25

BEGIN period  26
  PRINT  BUDGET  LAST
END period  26

BEGIN period  27
  PRINT  BUDGET  LAST
END period  27

BEGIN period  28
  PRINT  BUDGET  LAST
END period  28

BEGIN period  29
  PRINT  BUDGET  LAST
END period  29

BEGIN period  30
  PRINT  BUDGET  LAST
END period  30

BEGIN period  31
  PRINT  BUDGET  LAST
END period  31

BEGIN period  32
  PRINT  BUDGET  LAST
END period  32

BEGIN period  33
  PRINT  BUDGET  LAST
END period  33

BEGIN period  34
  PRINT  BUDGET  LAST
END period  34

BEGIN period  35
  PRINT  BUDGET  LAST
END period  35

BEGIN period  36
  PRINT  BUDGET  LAST
END period  36

BEGIN period  37
  PRINT  BUDGET  LAST
END period  37

BEGIN period  38
  PRINT  BUDGET  LAST
END period  38

BEGIN period  39
  PRINT  BUDGET  LAST
END period  39

BEGIN period  40
  PRINT  BUDGET  LAST
END period  40

BEGIN period  41
  PRINT  BUDGET  LAST
END period  41

BEGIN period  42
  PRINT  BUDGET  LAST
END period  42

BEGIN period  43
  PRINT  BUDGET  LAST
END period  43

BEGIN period  44
  PRINT  BUDGET  LAST
END period  44

BEGIN period  45
  PRINT  BUDGET  LAST
END period  45

BEGIN period  46
  PRINT  BUDGET  LAST
END period  46

BEGIN period  47
  PRINT  BUDGET  LAST
END period  47

BEGIN period  48
  PRINT  BUDGET  LAST
END period  48

BEGIN period  49
  PRINT  BUDGET  LAST
END period  49

BEGIN period  50
  PRINT  BUDGET  LAST
END period  50

BEGIN period  51
  PRINT  BUDGET  LAST
END period  51

BEGIN period  52
  PRINT  BUDGET  LAST
END period  52

BEGIN period  53
  PRINT  BUDGET  LAST
END period  53

BEGIN period  54
  PRINT  BUDGET  LAST
END period  54

BEGIN period  55
  PRINT  BUDGET  LAST
END period  55

BEGIN period  56
  PRINT  BUDGET  LAST
END period  56

BEGIN period  57
  PRINT  BUDGET  LAST
END period  57

BEGIN period  58
  PRINT  BUDGET  LAST
END period  58

BEGIN period  59
  PRINT  BUDGET  LAST
END period  59

BEGIN period  60
  PRINT  BUDGET  LAST
END period  60

BEGIN period  61
  PRINT  BUDGET  LAST
END period  61

BEGIN period  62
  PRINT  BUDGET  LAST
END period  62

BEGIN period  63
  PRINT  BUDGET  LAST
END period  63

BEGIN period  64
  PRINT  BUDGET  LAST
END period  64

BEGIN period  65
  PRINT  BUDGET  LAST
END period  65

BEGIN period  66
  PRINT  BUDGET  LAST
END period  66

BEGIN period  67
  PRINT  BUDGET  LAST
END period  67

BEGIN period  68
  PRINT  BUDGET  LAST
END period  68

BEGIN period  69
  PRINT  BUDGET  LAST
END period  69

BEGIN period  70
  PRINT  BUDGET  LAST
END period  70

BEGIN period  71
  PRINT  BUDGET  LAST
END period  71

BEGIN period  72
  PRINT  BUDGET  LAST
END period  72

BEGIN period  73
  SAVE  HEAD  ALL
  SAVE  BUDGET ALL
  PRINT  BUDGET  LAST
END period  73

BEGIN period  74
  SAVE  HEAD  ALL
  SAVE  BUDGET ALL
  PRINT  BUDGET  LAST
END period  74

BEGIN period  75
  SAVE  HEAD  ALL
  SAVE  BUDGET ALL
  PRINT  BUDGET  LAST
END period  75

BEGIN period  76
  SAVE  HEAD  ALL
  SAVE  BUDGET ALL
  PRINT  BUDGET  LAST
END period  76

BEGIN period  77
  SAVE  HEAD  ALL
  SAVE  BUDGET ALL
  PRINT  BUDGET  LAST
END period  77

BEGIN period  78
  SAVE  HEAD  ALL
  SAVE  BUDGET ALL
  PRINT  BUDGET  LAST
END period  78

BEGIN period  79
  SAVE  HEAD  ALL
  SAVE  BUDGET ALL
  PRINT  BUDGET  LAST
END period  79

BEGIN period  80
  SAVE  HEAD  ALL
  SAVE  BUDGET ALL
  PRINT  BUDGET  LAST
END period  80

BEGIN period  81
  SAVE  HEAD  ALL
  SAVE  BUDGET ALL
  PRINT  BUDGET  LAST
END period  81

BEGIN period  82
  SAVE  HEAD  ALL
  SAVE  BUDGET ALL
  PRINT  BUDGET  LAST
END period  82

BEGIN period  83
  SAVE  HEAD  ALL
  SAVE  BUDGET ALL
  PRINT  BUDGET  LAST
END period  83

BEGIN period  84
  SAVE  HEAD  ALL
  SAVE  BUDGET ALL
  PRINT  BUDGET  LAST
END period  84

