BEGIN options
  BOUNDNAMES
  SAVE_FLOWS
  OBS6  FILEIN  DC_MF6.ghb.obs
END options

BEGIN dimensions
  MAXBOUND  836
END dimensions

BEGIN period  1
  5 2592     540.00000000       1.00000000  west_ghb
  6 2592     540.00000000       1.00000000  west_ghb
  7 2592     540.00000000       1.00000000  west_ghb
  5 2593     540.00000000       1.00000000  west_ghb
  6 2593     540.00000000       1.00000000  west_ghb
  7 2593     540.00000000       1.00000000  west_ghb
  5 2598     540.00000000       1.00000000  west_ghb
  6 2598     540.00000000       1.00000000  west_ghb
  7 2598     540.00000000       1.00000000  west_ghb
  5 2599     540.00000000       1.00000000  west_ghb
  6 2599     540.00000000       1.00000000  west_ghb
  7 2599     540.00000000       1.00000000  west_ghb
  5 3002     540.00000000       1.00000000  west_ghb
  6 3002     540.00000000       1.00000000  west_ghb
  7 3002     540.00000000       1.00000000  west_ghb
  5 3005     530.00000000       1.00000000  west_ghb
  6 3005     530.00000000       1.00000000  west_ghb
  7 3005     530.00000000       1.00000000  west_ghb
  5 3007     530.00000000       1.00000000  west_ghb
  6 3007     530.00000000       1.00000000  west_ghb
  7 3007     530.00000000       1.00000000  west_ghb
  5 3009     530.00000000       1.00000000  west_ghb
  6 3009     530.00000000       1.00000000  west_ghb
  7 3009     530.00000000       1.00000000  west_ghb
  5 3425     530.00000000       1.00000000  west_ghb
  6 3425     530.00000000       1.00000000  west_ghb
  7 3425     530.00000000       1.00000000  west_ghb
  5 3427     530.00000000       1.00000000  west_ghb
  6 3427     530.00000000       1.00000000  west_ghb
  7 3427     530.00000000       1.00000000  west_ghb
  5 3429     530.00000000       1.00000000  west_ghb
  6 3429     530.00000000       1.00000000  west_ghb
  7 3429     530.00000000       1.00000000  west_ghb
  5 3430     530.00000000       1.00000000  west_ghb
  6 3430     530.00000000       1.00000000  west_ghb
  7 3430     530.00000000       1.00000000  west_ghb
  5 3800     525.00000000       1.00000000  west_ghb
  6 3800     525.00000000       1.00000000  west_ghb
  7 3800     525.00000000       1.00000000  west_ghb
  5 3802     525.00000000       1.00000000  west_ghb
  6 3802     525.00000000       1.00000000  west_ghb
  7 3802     525.00000000       1.00000000  west_ghb
  5 3804     525.00000000       1.00000000  west_ghb
  6 3804     525.00000000       1.00000000  west_ghb
  7 3804     525.00000000       1.00000000  west_ghb
  5 3806     525.00000000       1.00000000  west_ghb
  6 3806     525.00000000       1.00000000  west_ghb
  7 3806     525.00000000       1.00000000  west_ghb
  5 4142     520.00000000       1.00000000  west_ghb
  6 4142     520.00000000       1.00000000  west_ghb
  7 4142     520.00000000       1.00000000  west_ghb
  5 4143     520.00000000       1.00000000  west_ghb
  6 4143     520.00000000       1.00000000  west_ghb
  7 4143     520.00000000       1.00000000  west_ghb
  5 4145     520.00000000       1.00000000  west_ghb
  6 4145     520.00000000       1.00000000  west_ghb
  7 4145     520.00000000       1.00000000  west_ghb
  5 4147     520.00000000       1.00000000  west_ghb
  6 4147     520.00000000       1.00000000  west_ghb
  7 4147     520.00000000       1.00000000  west_ghb
  5 4158     518.00000000       1.00000000  west_ghb
  6 4158     518.00000000       1.00000000  west_ghb
  7 4158     518.00000000       1.00000000  west_ghb
  5 4159     515.00000000       1.00000000  west_ghb
  6 4159     515.00000000       1.00000000  west_ghb
  7 4159     515.00000000       1.00000000  west_ghb
  5 4508     515.00000000       1.00000000  west_ghb
  6 4508     515.00000000       1.00000000  west_ghb
  7 4508     515.00000000       1.00000000  west_ghb
  5 4509     515.00000000       1.00000000  west_ghb
  6 4509     515.00000000       1.00000000  west_ghb
  7 4509     515.00000000       1.00000000  west_ghb
  5 4510     515.00000000       1.00000000  west_ghb
  6 4510     515.00000000       1.00000000  west_ghb
  7 4510     515.00000000       1.00000000  west_ghb
  5 4511     515.00000000       1.00000000  west_ghb
  6 4511     515.00000000       1.00000000  west_ghb
  7 4511     515.00000000       1.00000000  west_ghb
  5 4513     515.00000000       1.00000000  west_ghb
  6 4513     515.00000000       1.00000000  west_ghb
  7 4513     515.00000000       1.00000000  west_ghb
  5 4531     510.00000000       1.00000000  west_ghb
  6 4531     510.00000000       1.00000000  west_ghb
  7 4531     510.00000000       1.00000000  west_ghb
  5 4533     510.00000000       1.00000000  west_ghb
  6 4533     510.00000000       1.00000000  west_ghb
  7 4533     510.00000000       1.00000000  west_ghb
  5 4535     500.00000000       1.00000000  west_ghb
  6 4535     500.00000000       1.00000000  west_ghb
  7 4535     500.00000000       1.00000000  west_ghb
  5 4536     505.00000000       1.00000000  west_ghb
  6 4536     505.00000000       1.00000000  west_ghb
  7 4536     505.00000000       1.00000000  west_ghb
  5 5163     500.00000000     100.00000000  west_ghb
  6 5163     500.00000000     100.00000000  west_ghb
  7 5163     500.00000000     100.00000000  west_ghb
  5 5164     500.00000000     100.00000000  west_ghb
  6 5164     500.00000000     100.00000000  west_ghb
  7 5164     500.00000000     100.00000000  west_ghb
  5 5165     500.00000000     100.00000000  west_ghb
  6 5165     500.00000000     100.00000000  west_ghb
  7 5165     500.00000000     100.00000000  west_ghb
  5 5168     493.00000000     100.00000000  west_ghb
  6 5168     493.00000000     100.00000000  west_ghb
  7 5168     493.00000000     100.00000000  west_ghb
  5 5169     493.00000000     100.00000000  west_ghb
  6 5169     493.00000000     100.00000000  west_ghb
  7 5169     493.00000000     100.00000000  west_ghb
  5 5170     500.00000000     100.00000000  west_ghb
  6 5170     500.00000000     100.00000000  west_ghb
  7 5170     500.00000000     100.00000000  west_ghb
  5 5171     498.00000000     100.00000000  west_ghb
  6 5171     498.00000000     100.00000000  west_ghb
  7 5171     498.00000000     100.00000000  west_ghb
  5 5177     495.00000000     100.00000000  west_ghb
  6 5177     495.00000000     100.00000000  west_ghb
  7 5177     495.00000000     100.00000000  west_ghb
  5 5185     500.00000000     100.00000000  west_ghb
  6 5185     500.00000000     100.00000000  west_ghb
  7 5185     500.00000000     100.00000000  west_ghb
  5 5186     500.00000000     100.00000000  west_ghb
  6 5186     500.00000000     100.00000000  west_ghb
  7 5186     500.00000000     100.00000000  west_ghb
  5 5191     500.00000000     100.00000000  west_ghb
  6 5191     500.00000000     100.00000000  west_ghb
  7 5191     500.00000000     100.00000000  west_ghb
  5 5748     491.00000000     100.00000000  west_ghb
  6 5748     491.00000000     100.00000000  west_ghb
  7 5748     491.00000000     100.00000000  west_ghb
  5 5750     490.00000000     100.00000000  west_ghb
  6 5750     490.00000000     100.00000000  west_ghb
  7 5750     490.00000000     100.00000000  west_ghb
  5 5752     487.00000000     100.00000000  west_ghb
  6 5752     487.00000000     100.00000000  west_ghb
  7 5752     487.00000000     100.00000000  west_ghb
  5 5754     485.00000000     100.00000000  west_ghb
  6 5754     485.00000000     100.00000000  west_ghb
  7 5754     485.00000000     100.00000000  west_ghb
  5 5771     480.00000000     100.00000000  west_ghb
  6 5771     480.00000000     100.00000000  west_ghb
  7 5771     480.00000000     100.00000000  west_ghb
  5 5772     478.00000000     100.00000000  west_ghb
  6 5772     478.00000000     100.00000000  west_ghb
  7 5772     478.00000000     100.00000000  west_ghb
  5 5773     475.00000000     100.00000000  west_ghb
  6 5773     475.00000000     100.00000000  west_ghb
  7 5773     475.00000000     100.00000000  west_ghb
  5 6313     475.00000000     100.00000000  west_ghb
  6 6313     475.00000000     100.00000000  west_ghb
  7 6313     475.00000000     100.00000000  west_ghb
  5 6315     472.00000000     100.00000000  west_ghb
  6 6315     472.00000000     100.00000000  west_ghb
  7 6315     472.00000000     100.00000000  west_ghb
  5 6317     472.00000000     100.00000000  west_ghb
  6 6317     472.00000000     100.00000000  west_ghb
  7 6317     472.00000000     100.00000000  west_ghb
  5 6318     472.00000000     100.00000000  west_ghb
  6 6318     472.00000000     100.00000000  west_ghb
  7 6318     472.00000000     100.00000000  west_ghb
  5 6327     472.00000000     100.00000000  west_ghb
  6 6327     472.00000000     100.00000000  west_ghb
  7 6327     472.00000000     100.00000000  west_ghb
  5 6329     470.00000000     100.00000000  west_ghb
  6 6329     470.00000000     100.00000000  west_ghb
  7 6329     470.00000000     100.00000000  west_ghb
  5 6332     470.00000000     100.00000000  west_ghb
  6 6332     470.00000000     100.00000000  west_ghb
  7 6332     470.00000000     100.00000000  west_ghb
  5 6334     465.00000000     100.00000000  west_ghb
  6 6334     465.00000000     100.00000000  west_ghb
  7 6334     465.00000000     100.00000000  west_ghb
  5 6335     462.00000000     100.00000000  west_ghb
  6 6335     462.00000000     100.00000000  west_ghb
  7 6335     462.00000000     100.00000000  west_ghb
  5 6336     460.00000000     100.00000000  west_ghb
  6 6336     460.00000000     100.00000000  west_ghb
  7 6336     460.00000000     100.00000000  west_ghb
  5 6338     458.00000000     100.00000000  west_ghb
  6 6338     458.00000000     100.00000000  west_ghb
  7 6338     458.00000000     100.00000000  west_ghb
  5 6833     455.00000000     100.00000000  west_ghb
  6 6833     455.00000000     100.00000000  west_ghb
  7 6833     455.00000000     100.00000000  west_ghb
  5 6834     455.00000000     100.00000000  west_ghb
  6 6834     455.00000000     100.00000000  west_ghb
  7 6834     455.00000000     100.00000000  west_ghb
  5 6835     455.00000000     100.00000000  west_ghb
  6 6835     455.00000000     100.00000000  west_ghb
  7 6835     455.00000000     100.00000000  west_ghb
  5 6838     450.00000000     100.00000000  west_ghb
  6 6838     450.00000000     100.00000000  west_ghb
  7 6838     450.00000000     100.00000000  west_ghb
  5 6840     445.00000000     100.00000000  west_ghb
  6 6840     445.00000000     100.00000000  west_ghb
  7 6840     445.00000000     100.00000000  west_ghb
  5 6851     440.00000000     100.00000000  west_ghb
  6 6851     440.00000000     100.00000000  west_ghb
  7 6851     440.00000000     100.00000000  west_ghb
  5 6852     440.00000000     100.00000000  west_ghb
  6 6852     440.00000000     100.00000000  west_ghb
  7 6852     440.00000000     100.00000000  west_ghb
  5 6857     440.00000000     100.00000000  west_ghb
  6 6857     440.00000000     100.00000000  west_ghb
  7 6857     440.00000000     100.00000000  west_ghb
  5 6859     437.00000000     100.00000000  west_ghb
  6 6859     437.00000000     100.00000000  west_ghb
  7 6859     437.00000000     100.00000000  west_ghb
  5 6861     435.00000000     100.00000000  west_ghb
  6 6861     435.00000000     100.00000000  west_ghb
  7 6861     435.00000000     100.00000000  west_ghb
  5 7380     427.00000000     100.00000000  west_ghb
  6 7380     427.00000000     100.00000000  west_ghb
  7 7380     427.00000000     100.00000000  west_ghb
  5 7382     425.00000000     100.00000000  west_ghb
  6 7382     425.00000000     100.00000000  west_ghb
  7 7382     425.00000000     100.00000000  west_ghb
  6 7384     421.00000000     100.00000000  west_ghb
  7 7384     421.00000000     100.00000000  west_ghb
  6 7385     420.00000000     100.00000000  west_ghb
  7 7385     420.00000000     100.00000000  west_ghb
  6 7390     419.00000000     100.00000000  west_ghb
  7 7390     419.00000000     100.00000000  west_ghb
  6 7391     418.00000000     100.00000000  west_ghb
  7 7391     418.00000000     100.00000000  west_ghb
  6 7392     418.00000000     100.00000000  west_ghb
  7 7392     418.00000000     100.00000000  west_ghb
  6 7425     418.00000000     100.00000000  west_ghb
  7 7425     418.00000000     100.00000000  west_ghb
  6 7426     418.00000000     100.00000000  west_ghb
  7 7426     418.00000000     100.00000000  west_ghb
  6 7427     415.00000000     100.00000000  west_ghb
  7 7427     415.00000000     100.00000000  west_ghb
  6 7429     415.00000000     100.00000000  west_ghb
  7 7429     415.00000000     100.00000000  west_ghb
  6 7430     410.00000000     100.00000000  west_ghb
  7 7430     410.00000000     100.00000000  west_ghb
  6 7431     408.00000000     100.00000000  west_ghb
  7 7431     408.00000000     100.00000000  west_ghb
  6 8645     408.00000000     100.00000000  west_ghb
  7 8645     408.00000000     100.00000000  west_ghb
  6 8647     408.00000000     100.00000000  west_ghb
  7 8647     408.00000000     100.00000000  west_ghb
  6 8648     405.00000000     100.00000000  west_ghb
  7 8648     405.00000000     100.00000000  west_ghb
  6 8657     405.00000000     100.00000000  west_ghb
  7 8657     405.00000000     100.00000000  west_ghb
  6 8659     402.00000000     100.00000000  west_ghb
  7 8659     402.00000000     100.00000000  west_ghb
  6 8664     400.00000000     100.00000000  west_ghb
  7 8664     400.00000000     100.00000000  west_ghb
  6 8665     400.00000000     100.00000000  west_ghb
  7 8665     400.00000000     100.00000000  west_ghb
  6 8666     400.00000000     100.00000000  west_ghb
  7 8666     400.00000000     100.00000000  west_ghb
  6 8667     400.00000000     100.00000000  west_ghb
  7 8667     400.00000000     100.00000000  west_ghb
  6 8673     402.00000000     100.00000000  west_ghb
  7 8673     402.00000000     100.00000000  west_ghb
  6 8674     400.00000000     100.00000000  west_ghb
  7 8674     400.00000000     100.00000000  west_ghb
  6 9629     400.00000000     100.00000000  west_ghb
  7 9629     400.00000000     100.00000000  west_ghb
  6 9630     397.00000000     100.00000000  west_ghb
  7 9630     397.00000000     100.00000000  west_ghb
  6 9632     395.00000000     100.00000000  west_ghb
  7 9632     395.00000000     100.00000000  west_ghb
  6 9633     395.00000000     100.00000000  west_ghb
  7 9633     395.00000000     100.00000000  west_ghb
  6 9637     392.00000000     100.00000000  west_ghb
  7 9637     392.00000000     100.00000000  west_ghb
  6 9638     395.00000000     100.00000000  west_ghb
  7 9638     395.00000000     100.00000000  west_ghb
  6 9639     392.00000000     100.00000000  west_ghb
  7 9639     392.00000000     100.00000000  west_ghb
  7 9641     391.00000000     100.00000000  west_ghb
  6 9649     395.00000000     100.00000000  west_ghb
  7 9649     395.00000000     100.00000000  west_ghb
  6 12009     400.00000000     100.00000000  west_ghb
  7 12009     400.00000000     100.00000000  west_ghb
  6 12019     400.00000000     100.00000000  west_ghb
  7 12019     400.00000000     100.00000000  west_ghb
  6 12020     400.00000000     100.00000000  west_ghb
  7 12020     400.00000000     100.00000000  west_ghb
  6 12021     400.00000000     100.00000000  west_ghb
  7 12021     400.00000000     100.00000000  west_ghb
  6 12022     400.00000000     100.00000000  west_ghb
  7 12022     400.00000000     100.00000000  west_ghb
  6 12063     410.00000000       1.00000000  west_ghb
  7 12063     410.00000000       1.00000000  west_ghb
  6 12064     410.00000000       1.00000000  west_ghb
  7 12064     410.00000000       1.00000000  west_ghb
  6 12073     415.00000000       1.00000000  west_ghb
  7 12073     415.00000000       1.00000000  west_ghb
  6 12074     415.00000000       1.00000000  west_ghb
  7 12074     415.00000000       1.00000000  west_ghb
  6 12075     415.00000000       1.00000000  west_ghb
  7 12075     415.00000000       1.00000000  west_ghb
  6 12116     415.00000000       1.00000000  west_ghb
  7 12116     415.00000000       1.00000000  west_ghb
  6 12118     420.00000000       1.00000000  west_ghb
  7 12118     420.00000000       1.00000000  west_ghb
  6 12138     430.00000000       1.00000000  west_ghb
  7 12138     430.00000000       1.00000000  west_ghb
  6 12181     430.00000000       1.00000000  west_ghb
  7 12181     430.00000000       1.00000000  west_ghb
  5 12184     430.00000000       1.00000000  west_ghb
  6 12184     430.00000000       1.00000000  west_ghb
  7 12184     430.00000000       1.00000000  west_ghb
  5 12185     430.00000000       1.00000000  west_ghb
  6 12185     430.00000000       1.00000000  west_ghb
  7 12185     430.00000000       1.00000000  west_ghb
  5 12196     430.00000000       1.00000000  west_ghb
  6 12196     430.00000000       1.00000000  west_ghb
  7 12196     430.00000000       1.00000000  west_ghb
  5 12201     440.00000000       1.00000000  west_ghb
  6 12201     440.00000000       1.00000000  west_ghb
  7 12201     440.00000000       1.00000000  west_ghb
  5 12238     440.00000000       1.00000000  west_ghb
  6 12238     440.00000000       1.00000000  west_ghb
  7 12238     440.00000000       1.00000000  west_ghb
  5 12239     440.00000000       1.00000000  west_ghb
  6 12239     440.00000000       1.00000000  west_ghb
  7 12239     440.00000000       1.00000000  west_ghb
  5 12240     440.00000000       1.00000000  west_ghb
  6 12240     440.00000000       1.00000000  west_ghb
  7 12240     440.00000000       1.00000000  west_ghb
  5 12241     440.00000000       1.00000000  west_ghb
  6 12241     440.00000000       1.00000000  west_ghb
  7 12241     440.00000000       1.00000000  west_ghb
  5 12248     440.00000000       1.00000000  west_ghb
  6 12248     440.00000000       1.00000000  west_ghb
  7 12248     440.00000000       1.00000000  west_ghb
  5 12249     440.00000000       1.00000000  west_ghb
  6 12249     440.00000000       1.00000000  west_ghb
  7 12249     440.00000000       1.00000000  west_ghb
  6 12322     395.00000000     100.00000000  west_ghb
  7 12322     395.00000000     100.00000000  west_ghb
  6 12323     395.00000000     100.00000000  west_ghb
  7 12323     395.00000000     100.00000000  west_ghb
  6 12324     395.00000000     100.00000000  west_ghb
  7 12324     395.00000000     100.00000000  west_ghb
  6 12333     395.00000000     100.00000000  west_ghb
  7 12333     395.00000000     100.00000000  west_ghb
  6 12334     395.00000000     100.00000000  west_ghb
  7 12334     395.00000000     100.00000000  west_ghb
  6 12336     395.00000000     100.00000000  west_ghb
  7 12336     395.00000000     100.00000000  west_ghb
  6 12337     425.00000000       1.00000000  west_ghb
  7 12337     425.00000000       1.00000000  west_ghb
  6 12339     425.00000000       1.00000000  west_ghb
  7 12339     425.00000000       1.00000000  west_ghb
  6 12342     425.00000000       1.00000000  west_ghb
  7 12342     425.00000000       1.00000000  west_ghb
  6 12343     425.00000000       1.00000000  west_ghb
  7 12343     425.00000000       1.00000000  west_ghb
  6 12344     425.00000000       1.00000000  west_ghb
  7 12344     425.00000000       1.00000000  west_ghb
  5 12346     440.00000000       1.00000000  west_ghb
  6 12346     440.00000000       1.00000000  west_ghb
  7 12346     440.00000000       1.00000000  west_ghb
  5 12347     440.00000000       1.00000000  west_ghb
  6 12347     440.00000000       1.00000000  west_ghb
  7 12347     440.00000000       1.00000000  west_ghb
  3 415     580.00000000       1.00000000  west_ghb
  4 415     580.00000000       1.00000000  west_ghb
  5 415     580.00000000       1.00000000  west_ghb
  6 415     580.00000000       1.00000000  west_ghb
  7 415     580.00000000       1.00000000  west_ghb
  3 416     580.00000000       1.00000000  west_ghb
  4 416     580.00000000       1.00000000  west_ghb
  5 416     580.00000000       1.00000000  west_ghb
  6 416     580.00000000       1.00000000  west_ghb
  7 416     580.00000000       1.00000000  west_ghb
  3 607     575.00000000       1.00000000  west_ghb
  4 607     575.00000000       1.00000000  west_ghb
  5 607     575.00000000       1.00000000  west_ghb
  6 607     575.00000000       1.00000000  west_ghb
  7 607     575.00000000       1.00000000  west_ghb
  3 970     575.00000000       1.00000000  west_ghb
  4 970     575.00000000       1.00000000  west_ghb
  5 970     575.00000000       1.00000000  west_ghb
  6 970     575.00000000       1.00000000  west_ghb
  7 970     575.00000000       1.00000000  west_ghb
  3 1366     570.00000000       1.00000000  west_ghb
  4 1366     570.00000000       1.00000000  west_ghb
  5 1366     570.00000000       1.00000000  west_ghb
  6 1366     570.00000000       1.00000000  west_ghb
  7 1366     570.00000000       1.00000000  west_ghb
  3 1778     570.00000000       1.00000000  west_ghb
  4 1778     570.00000000       1.00000000  west_ghb
  5 1778     570.00000000       1.00000000  west_ghb
  6 1778     570.00000000       1.00000000  west_ghb
  7 1778     570.00000000       1.00000000  west_ghb
  3 1     600.00000000       1.00000000  north_ghb
  4 1     600.00000000       1.00000000  north_ghb
  5 1     600.00000000       1.00000000  north_ghb
  6 1     600.00000000       1.00000000  north_ghb
  7 1     600.00000000       1.00000000  north_ghb
  3 2     600.00000000       1.00000000  north_ghb
  4 2     600.00000000       1.00000000  north_ghb
  5 2     600.00000000       1.00000000  north_ghb
  6 2     600.00000000       1.00000000  north_ghb
  7 2     600.00000000       1.00000000  north_ghb
  3 3     600.00000000       1.00000000  north_ghb
  4 3     600.00000000       1.00000000  north_ghb
  5 3     600.00000000       1.00000000  north_ghb
  6 3     600.00000000       1.00000000  north_ghb
  7 3     600.00000000       1.00000000  north_ghb
  3 4     600.00000000       1.00000000  north_ghb
  4 4     600.00000000       1.00000000  north_ghb
  5 4     600.00000000       1.00000000  north_ghb
  6 4     600.00000000       1.00000000  north_ghb
  7 4     600.00000000       1.00000000  north_ghb
  3 7     600.00000000       1.00000000  north_ghb
  4 7     600.00000000       1.00000000  north_ghb
  5 7     600.00000000       1.00000000  north_ghb
  6 7     600.00000000       1.00000000  north_ghb
  7 7     600.00000000       1.00000000  north_ghb
  3 8     600.00000000       1.00000000  north_ghb
  4 8     600.00000000       1.00000000  north_ghb
  5 8     600.00000000       1.00000000  north_ghb
  6 8     600.00000000       1.00000000  north_ghb
  7 8     600.00000000       1.00000000  north_ghb
  3 11     600.00000000       1.00000000  north_ghb
  4 11     600.00000000       1.00000000  north_ghb
  5 11     600.00000000       1.00000000  north_ghb
  6 11     600.00000000       1.00000000  north_ghb
  7 11     600.00000000       1.00000000  north_ghb
  3 12     605.00000000       1.00000000  north_ghb
  4 12     605.00000000       1.00000000  north_ghb
  5 12     605.00000000       1.00000000  north_ghb
  6 12     605.00000000       1.00000000  north_ghb
  7 12     605.00000000       1.00000000  north_ghb
  3 15     600.00000000       1.00000000  north_ghb
  4 15     600.00000000       1.00000000  north_ghb
  5 15     600.00000000       1.00000000  north_ghb
  6 15     600.00000000       1.00000000  north_ghb
  7 15     600.00000000       1.00000000  north_ghb
  3 16     600.00000000       1.00000000  north_ghb
  4 16     600.00000000       1.00000000  north_ghb
  5 16     600.00000000       1.00000000  north_ghb
  6 16     600.00000000       1.00000000  north_ghb
  7 16     600.00000000       1.00000000  north_ghb
  3 19     600.00000000       1.00000000  north_ghb
  4 19     600.00000000       1.00000000  north_ghb
  5 19     600.00000000       1.00000000  north_ghb
  6 19     600.00000000       1.00000000  north_ghb
  7 19     600.00000000       1.00000000  north_ghb
  3 20     600.00000000       1.00000000  north_ghb
  4 20     600.00000000       1.00000000  north_ghb
  5 20     600.00000000       1.00000000  north_ghb
  6 20     600.00000000       1.00000000  north_ghb
  7 20     600.00000000       1.00000000  north_ghb
  3 21     600.00000000       1.00000000  north_ghb
  4 21     600.00000000       1.00000000  north_ghb
  5 21     600.00000000       1.00000000  north_ghb
  6 21     600.00000000       1.00000000  north_ghb
  7 21     600.00000000       1.00000000  north_ghb
  3 22     600.00000000       1.00000000  north_ghb
  4 22     600.00000000       1.00000000  north_ghb
  5 22     600.00000000       1.00000000  north_ghb
  6 22     600.00000000       1.00000000  north_ghb
  7 22     600.00000000       1.00000000  north_ghb
  3 27     600.00000000       1.00000000  north_ghb
  4 27     600.00000000       1.00000000  north_ghb
  5 27     600.00000000       1.00000000  north_ghb
  6 27     600.00000000       1.00000000  north_ghb
  7 27     600.00000000       1.00000000  north_ghb
  3 28     600.00000000       1.00000000  north_ghb
  4 28     600.00000000       1.00000000  north_ghb
  5 28     600.00000000       1.00000000  north_ghb
  6 28     600.00000000       1.00000000  north_ghb
  7 28     600.00000000       1.00000000  north_ghb
  3 29     600.00000000       1.00000000  north_ghb
  4 29     600.00000000       1.00000000  north_ghb
  5 29     600.00000000       1.00000000  north_ghb
  6 29     600.00000000       1.00000000  north_ghb
  7 29     600.00000000       1.00000000  north_ghb
  3 37     600.00000000       1.00000000  north_ghb
  4 37     600.00000000       1.00000000  north_ghb
  5 37     600.00000000       1.00000000  north_ghb
  6 37     600.00000000       1.00000000  north_ghb
  7 37     600.00000000       1.00000000  north_ghb
  3 38     600.00000000       1.00000000  north_ghb
  4 38     600.00000000       1.00000000  north_ghb
  5 38     600.00000000       1.00000000  north_ghb
  6 38     600.00000000       1.00000000  north_ghb
  7 38     600.00000000       1.00000000  north_ghb
  3 39     600.00000000       1.00000000  north_ghb
  4 39     600.00000000       1.00000000  north_ghb
  5 39     600.00000000       1.00000000  north_ghb
  6 39     600.00000000       1.00000000  north_ghb
  7 39     600.00000000       1.00000000  north_ghb
  3 40     600.00000000       1.00000000  north_ghb
  4 40     600.00000000       1.00000000  north_ghb
  5 40     600.00000000       1.00000000  north_ghb
  6 40     600.00000000       1.00000000  north_ghb
  7 40     600.00000000       1.00000000  north_ghb
  3 41     600.00000000       1.00000000  north_ghb
  4 41     600.00000000       1.00000000  north_ghb
  5 41     600.00000000       1.00000000  north_ghb
  6 41     600.00000000       1.00000000  north_ghb
  7 41     600.00000000       1.00000000  north_ghb
  3 42     600.00000000       1.00000000  north_ghb
  4 42     600.00000000       1.00000000  north_ghb
  5 42     600.00000000       1.00000000  north_ghb
  6 42     600.00000000       1.00000000  north_ghb
  7 42     600.00000000       1.00000000  north_ghb
  3 52     600.00000000       1.00000000  north_ghb
  4 52     600.00000000       1.00000000  north_ghb
  5 52     600.00000000       1.00000000  north_ghb
  6 52     600.00000000       1.00000000  north_ghb
  7 52     600.00000000       1.00000000  north_ghb
  3 53     600.00000000       1.00000000  north_ghb
  4 53     600.00000000       1.00000000  north_ghb
  5 53     600.00000000       1.00000000  north_ghb
  6 53     600.00000000       1.00000000  north_ghb
  7 53     600.00000000       1.00000000  north_ghb
  3 54     600.00000000       1.00000000  north_ghb
  4 54     600.00000000       1.00000000  north_ghb
  5 54     600.00000000       1.00000000  north_ghb
  6 54     600.00000000       1.00000000  north_ghb
  7 54     600.00000000       1.00000000  north_ghb
  3 55     600.00000000       1.00000000  north_ghb
  4 55     600.00000000       1.00000000  north_ghb
  5 55     600.00000000       1.00000000  north_ghb
  6 55     600.00000000       1.00000000  north_ghb
  7 55     600.00000000       1.00000000  north_ghb
  3 56     600.00000000       1.00000000  north_ghb
  4 56     600.00000000       1.00000000  north_ghb
  5 56     600.00000000       1.00000000  north_ghb
  6 56     600.00000000       1.00000000  north_ghb
  7 56     600.00000000       1.00000000  north_ghb
  3 60     600.00000000       1.00000000  north_ghb
  4 60     600.00000000       1.00000000  north_ghb
  5 60     600.00000000       1.00000000  north_ghb
  6 60     600.00000000       1.00000000  north_ghb
  7 60     600.00000000       1.00000000  north_ghb
  3 77     595.00000000       1.00000000  north_ghb
  4 77     595.00000000       1.00000000  north_ghb
  5 77     595.00000000       1.00000000  north_ghb
  6 77     595.00000000       1.00000000  north_ghb
  7 77     595.00000000       1.00000000  north_ghb
  3 51     600.00000000       1.00000000  east_ghb
  4 51     600.00000000       1.00000000  east_ghb
  5 51     600.00000000       1.00000000  east_ghb
  6 51     600.00000000       1.00000000  east_ghb
  7 51     600.00000000       1.00000000  east_ghb
  3 70     600.00000000       1.00000000  east_ghb
  4 70     600.00000000       1.00000000  east_ghb
  5 70     600.00000000       1.00000000  east_ghb
  6 70     600.00000000       1.00000000  east_ghb
  7 70     600.00000000       1.00000000  east_ghb
  3 98     600.00000000       1.00000000  east_ghb
  4 98     600.00000000       1.00000000  east_ghb
  5 98     600.00000000       1.00000000  east_ghb
  6 98     600.00000000       1.00000000  east_ghb
  7 98     600.00000000       1.00000000  east_ghb
  3 163     600.00000000       1.00000000  east_ghb
  4 163     600.00000000       1.00000000  east_ghb
  5 163     600.00000000       1.00000000  east_ghb
  6 163     600.00000000       1.00000000  east_ghb
  7 163     600.00000000       1.00000000  east_ghb
  3 272     600.00000000       1.00000000  east_ghb
  4 272     600.00000000       1.00000000  east_ghb
  5 272     600.00000000       1.00000000  east_ghb