BEGIN options
END options

BEGIN continuous  FILEOUT  chd_obs.bsv
  southout  chd  southchd
END continuous  FILEOUT  chd_obs.bsv

