BEGIN options
  SAVE_FLOWS
END options

BEGIN griddata
  iconvert
    CONSTANT  1
  ss  LAYERED
    INTERNAL  FACTOR  1.0
      3.99999999E-06  3.99999999E-06  3.99999999E-06  3.99999999E-06  3.99999999E-06  3.99999999E-06  3.99999999E-06  3.99999999E-06  3.99999999E-06  3.99999999E-06  3.99999999E-06  3.99999999E-06  3.99999999E-06  3.99999999E-06  3.99999999E-06  3.99999999E-06  3.99999999E-06  3.99999999E-06  3.99999999E-06  3.99999999E-06
      3.99999999E-06  3.99999999E-06  3.99999999E-06  3.99999999E-06  3.99999999E-06  3.99999999E-06  3.99999999E-06  3.99999999E-06  3.99999999E-06  6.00000021E-06  6.00000021E-06  3.99999999E-06  3.99999999E-06  3.99999999E-06  3.99999999E-06  3.99999999E-06  3.99999999E-06  3.99999999E-06  3.99999999E-06  3.99999999E-06
      3.99999999E-06  3.99999999E-06  3.99999999E-06  3.99999999E-06  6.00000021E-06  6.00000021E-06  6.00000021E-06  6.00000021E-06  6.00000021E-06  3.99999999E-06  3.99999999E-06  3.99999999E-06  3.99999999E-06  3.99999999E-06  3.99999999E-06  3.99999999E-06  3.99999999E-06  3.99999999E-06  3.99999999E-06  3.99999999E-06
      3.99999999E-06  3.99999999E-06  3.99999999E-06  3.99999999E-06  3.99999999E-06  6.00000021E-06  6.00000021E-06  6.00000021E-06  3.99999999E-06  3.99999999E-06  3.99999999E-06  3.99999999E-06  3.99999999E-06  3.99999999E-06  3.99999999E-06  3.99999999E-06  3.99999999E-06  3.99999999E-06  3.99999999E-06  3.99999999E-06
      3.99999999E-06  3.99999999E-06  3.99999999E-06  3.99999999E-06  3.99999999E-06  3.99999999E-06  3.99999999E-06  3.99999999E-06  3.99999999E-06  3.99999999E-06  3.99999999E-06  6.00000021E-06  6.00000021E-06  6.00000021E-06  6.00000021E-06  6.00000021E-06  3.99999999E-06  3.99999999E-06  3.99999999E-06  3.99999999E-06
      3.99999999E-06  3.99999999E-06  3.99999999E-06  3.99999999E-06  3.99999999E-06  3.99999999E-06  3.99999999E-06  3.99999999E-06  3.99999999E-06  3.99999999E-06  3.99999999E-06  3.99999999E-06  3.99999999E-06  3.99999999E-06  3.99999999E-06  3.99999999E-06  3.99999999E-06  3.99999999E-06  3.99999999E-06  3.99999999E-06
      3.99999999E-06  9.99999975E-06  3.99999999E-06  9.99999975E-06  3.99999999E-06  9.99999975E-06  9.99999975E-06  9.99999975E-06  9.99999975E-06  9.99999975E-06  3.99999999E-06  3.99999999E-06  3.99999999E-06  3.99999999E-06  3.99999999E-06  3.99999999E-06  3.99999999E-06  3.99999999E-06  3.99999999E-06  3.99999999E-06
      3.99999999E-06  3.99999999E-06  3.99999999E-06  3.99999999E-06  3.99999999E-06  3.99999999E-06  3.99999999E-06  3.99999999E-06  3.99999999E-06  3.99999999E-06  3.99999999E-06  3.99999999E-06  9.99999975E-06  3.99999999E-06  6.00000021E-06  9.99999975E-06  3.99999999E-06  6.00000021E-06  6.00000021E-06  3.99999999E-06
      3.99999999E-06  3.99999999E-06  3.99999999E-06  3.99999999E-06  3.99999999E-06  3.99999999E-06  3.99999999E-06  3.99999999E-06  3.99999999E-06  3.99999999E-06  3.99999999E-06  3.99999999E-06  3.99999999E-06  3.99999999E-06  3.99999999E-06  3.99999999E-06  3.99999999E-06  3.99999999E-06  3.99999999E-06  3.99999999E-06
      3.99999999E-06  3.99999999E-06  3.99999999E-06  3.99999999E-06  3.99999999E-06  3.99999999E-06  3.99999999E-06  3.99999999E-06  3.99999999E-06  3.99999999E-06  3.99999999E-06  3.99999999E-06  3.99999999E-06  3.99999999E-06  3.99999999E-06  3.99999999E-06  3.99999999E-06  3.99999999E-06  3.99999999E-06  3.99999999E-06
      3.99999999E-06  9.99999975E-06  9.99999975E-06  3.99999999E-06  9.99999975E-06  3.99999999E-06  9.99999975E-06  9.99999975E-06  3.99999999E-06  9.99999975E-06  3.99999999E-06  3.99999999E-06  9.99999975E-06  9.99999975E-06  9.99999975E-06  9.99999975E-06  3.99999999E-06  9.99999975E-06  3.99999999E-06  3.99999999E-06
      3.99999999E-06  3.99999999E-06  3.99999999E-06  3.99999999E-06  3.99999999E-06  3.99999999E-06  3.99999999E-06  3.99999999E-06  3.99999999E-06  3.99999999E-06  3.99999999E-06  3.99999999E-06  3.99999999E-06  3.99999999E-06  3.99999999E-06  3.99999999E-06  3.99999999E-06  3.99999999E-06  3.99999999E-06  3.99999999E-06
      9.99999975E-06  3.99999999E-06  9.99999975E-06  3.99999999E-06  3.99999999E-06  3.99999999E-06  3.99999999E-06  9.99999975E-06  9.99999975E-06  9.99999975E-06  9.99999975E-06  9.99999975E-06  9.99999975E-06  9.99999975E-06  9.99999975E-06  3.99999999E-06  9.99999975E-06  3.99999999E-06  9.99999975E-06  3.99999999E-06
      3.99999999E-06  3.99999999E-06  3.99999999E-06  3.99999999E-06  3.99999999E-06  3.99999999E-06  3.99999999E-06  3.99999999E-06  3.99999999E-06  3.99999999E-06  3.99999999E-06  3.99999999E-06  3.99999999E-06  3.99999999E-06  3.99999999E-06  3.99999999E-06  3.99999999E-06  3.99999999E-06  3.99999999E-06  3.99999999E-06
      3.99999999E-06  3.99999999E-06  3.99999999E-06  3.99999999E-06  3.99999999E-06  3.99999999E-06  3.99999999E-06  3.99999999E-06  3.99999999E-06  3.99999999E-06  3.99999999E-06  3.99999999E-06  3.99999999E-06  3.99999999E-06  3.99999999E-06  3.99999999E-06  3.99999999E-06  3.99999999E-06  3.99999999E-06  3.99999999E-06
      3.99999999E-06  3.99999999E-06  3.99999999E-06  3.99999999E-06  3.99999999E-06  3.99999999E-06  3.99999999E-06  3.99999999E-06  3.99999999E-06  3.99999999E-06  3.99999999E-06  3.99999999E-06  3.99999999E-06  3.99999999E-06  3.99999999E-06  3.99999999E-06  3.99999999E-06  3.99999999E-06  3.99999999E-06  9.99999975E-06
      9.99999975E-06  3.99999999E-06  9.99999975E-06  3.99999999E-06  3.99999999E-06  3.99999999E-06  3.99999999E-06  3.99999999E-06  9.99999975E-06  3.99999999E-06  9.99999975E-06  9.99999975E-06  9.99999975E-06  9.99999975E-06  9.99999975E-06  9.99999975E-06  3.99999999E-06  3.99999999E-06  3.99999999E-06  9.99999975E-06
      9.99999975E-06  3.99999999E-06  3.99999999E-06  3.99999999E-06  3.99999999E-06  3.99999999E-06  3.99999999E-06  3.99999999E-06  3.99999999E-06  3.99999999E-06  3.99999999E-06  3.99999999E-06  3.99999999E-06  9.99999975E-06  9.99999975E-06  3.99999999E-06  9.99999975E-06  3.99999999E-06  9.99999975E-06  9.99999975E-06
      9.99999975E-06  9.99999975E-06  9.99999975E-06  3.99999999E-06  3.99999999E-06  9.99999975E-06  9.99999975E-06  9.99999975E-06  9.99999975E-06  9.99999975E-06  9.99999975E-06  9.99999975E-06  9.99999975E-06  3.99999999E-06  3.99999999E-06  9.99999975E-06  9.99999975E-06  3.99999999E-06  3.99999999E-06  9.99999975E-06
      9.99999975E-06  9.99999975E-06  9.99999975E-06  9.99999975E-06  9.99999975E-06  9.99999975E-06  9.99999975E-06  9.99999975E-06  9.99999975E-06  3.99999999E-06  3.99999999E-06  3.99999999E-06  9.99999975E-06  3.99999999E-06  3.99999999E-06  3.99999999E-06  3.99999999E-06  9.99999975E-06  9.99999975E-06  3.99999999E-06
      9.99999975E-06  9.99999975E-06  9.99999975E-06  3.99999999E-06  9.99999975E-06  3.99999999E-06  3.99999999E-06  3.99999999E-06  3.99999999E-06  3.99999999E-06  3.99999999E-06  3.99999999E-06  3.99999999E-06  3.99999999E-06  3.99999999E-06  3.99999999E-06  3.99999999E-06  3.99999999E-06  3.99999999E-06  3.99999999E-06
      3.99999999E-06  3.99999999E-06  3.99999999E-06  3.99999999E-06  3.99999999E-06  3.99999999E-06  3.99999999E-06  3.99999999E-06  3.99999999E-06  3.99999999E-06  3.99999999E-06  3.99999999E-06  3.99999999E-06  3.99999999E-06  3.99999999E-06  3.99999999E-06  3.99999999E-06  3.99999999E-06  3.99999999E-06  3.99999999E-06
      3.99999999E-06  3.99999999E-06  3.99999999E-06  3.99999999E-06  3.99999999E-06  3.99999999E-06  3.99999999E-06  3.99999999E-06  3.99999999E-06  3.99999999E-06  3.99999999E-06  3.99999999E-06  3.99999999E-06  3.99999999E-06  3.99999999E-06  3.99999999E-06  3.99999999E-06  9.99999975E-06  9.99999975E-06  3.99999999E-06
      3.99999999E-06  3.99999999E-06  3.99999999E-06  3.99999999E-06  3.99999999E-06  3.99999999E-06  9.99999975E-06  3.99999999E-06  3.99999999E-06  3.99999999E-06  9.99999975E-06  9.99999975E-06  3.99999999E-06  3.99999999E-06  3.99999999E-06  3.99999999E-06  3.99999999E-06  3.99999999E-06  3.99999999E-06  3.99999999E-06
      3.99999999E-06  3.99999999E-06  9.99999975E-06  3.99999999E-06  3.99999999E-06  3.99999999E-06  3.99999999E-06  3.99999999E-06  3.99999999E-06  3.99999999E-06  3.99999999E-06  3.99999999E-06  3.99999999E-06  3.99999999E-06  3.99999999E-06  3.99999999E-06  3.99999999E-06  3.99999999E-06  3.99999999E-06  3.99999999E-06
      3.99999999E-06  3.99999999E-06  3.99999999E-06  3.99999999E-06  3.99999999E-06  3.99999999E-06  3.99999999E-06  3.99999999E-06  3.99999999E-06  9.99999975E-06  3.99999999E-06  9.99999975E-06  9.99999975E-06  3.99999999E-06  9.99999975E-06  9.99999975E-06  3.99999999E-06  9.99999975E-06  3.99999999E-06  9.99999975E-06
      9.99999975E-06  3.99999999E-06  9.99999975E-06  3.99999999E-06  3.99999999E-06  3.99999999E-06  9.99999975E-06  9.99999975E-06  9.99999975E-06  9.99999975E-06  9.99999975E-06  9.99999975E-06  9.99999975E-06  9.99999975E-06  9.99999975E-06  9.99999975E-06  3.99999999E-06  9.99999975E-06  9.99999975E-06  9.99999975E-06
      9.99999975E-06  9.99999975E-06  9.99999975E-06  9.99999975E-06  9.99999975E-06  9.99999975E-06  3.99999999E-06  9.99999975E-06  9.99999975E-06  3.99999999E-06  3.99999999E-06  3.99999999E-06  3.99999999E-06  3.99999999E-06  3.99999999E-06  3.99999999E-06  3.99999999E-06  3.99999999E-06  3.99999999E-06  3.99999999E-06
      3.99999999E-06  3.99999999E-06  3.99999999E-06  3.99999999E-06  3.99999999E-06  3.99999999E-06  3.99999999E-06  3.99999999E-06  3.99999999E-06  3.99999999E-06  3.99999999E-06  3.99999999E-06  3.99999999E-06  3.99999999E-06  3.99999999E-06  3.99999999E-06  3.99999999E-06  3.99999999E-06  3.99999999E-06  3.99999999E-06
      3.99999999E-06  3.99999999E-06  3.99999999E-06  3.99999999E-06  3.99999999E-06  3.99999999E-06  3.99999999E-06  3.99999999E-06  3.99999999E-06  3.99999999E-06  3.99999999E-06  3.99999999E-06  3.99999999E-06  3.99999999E-06  3.99999999E-06  3.99999999E-06  3.99999999E-06  3.99999999E-06  3.99999999E-06  3.99999999E-06
      3.99999999E-06  3.99999999E-06  3.99999999E-06  3.99999999E-06  3.99999999E-06  3.99999999E-06  3.99999999E-06  3.99999999E-06  3.99999999E-06  3.99999999E-06  3.99999999E-06  3.99999999E-06  3.99999999E-06  3.99999999E-06  3.99999999E-06  3.99999999E-06  3.99999999E-06  3.99999999E-06  3.99999999E-06  3.99999999E-06
      3.99999999E-06  3.99999999E-06  3.99999999E-06  3.99999999E-06  3.99999999E-06  3.99999999E-06  3.99999999E-06  3.99999999E-06  3.99999999E-06  3.99999999E-06  3.99999999E-06  3.99999999E-06  3.99999999E-06  3.99999999E-06  3.99999999E-06  3.99999999E-06  3.99999999E-06  3.99999999E-06  3.99999999E-06  3.99999999E-06
      3.99999999E-06  3.99999999E-06  3.99999999E-06  3.99999999E-06  3.99999999E-06  3.99999999E-06  3.99999999E-06  3.99999999E-06  3.99999999E-06  3.99999999E-06  3.99999999E-06  3.99999999E-06  3.99999999E-06  3.99999999E-06  3.99999999E-06  3.99999999E-06  3.99999999E-06  3.99999999E-06  3.99999999E-06  3.99999999E-06
      3.99999999E-06  3.99999999E-06  3.99999999E-06  3.99999999E-06  3.99999999E-06  3.99999999E-06  3.99999999E-06  3.99999999E-06  3.99999999E-06  3.99999999E-06  3.99999999E-06  3.99999999E-06  3.99999999E-06  3.99999999E-06  3.99999999E-06  3.99999999E-06  3.99999999E-06  3.99999999E-06  3.99999999E-06  3.99999999E-06
      3.99999999E-06  3.99999999E-06  3.99999999E-06  3.99999999E-06  3.99999999E-06  3.99999999E-06  3.99999999E-06  3.99999999E-06  3.99999999E-06  3.99999999E-06  3.99999999E-06  3.99999999E-06  3.99999999E-06  3.99999999E-06  3.99999999E-06  3.99999999E-06  3.99999999E-06  3.99999999E-06  3.99999999E-06  3.99999999E-06
      3.99999999E-06  3.99999999E-06  3.99999999E-06  3.99999999E-06  3.99999999E-06  3.99999999E-06  3.99999999E-06  3.99999999E-06  3.99999999E-06  3.99999999E-06  3.99999999E-06  3.99999999E-06  3.99999999E-06  3.99999999E-06  3.99999999E-06  3.99999999E-06  3.99999999E-06  3.99999999E-06  3.99999999E-06  3.99999999E-06
      3.99999999E-06  3.99999999E-06  3.99999999E-06  3.99999999E-06  3.99999999E-06  3.99999999E-06  3.99999999E-06  3.99999999E-06  3.99999999E-06  3.99999999E-06  9.99999975E-06  3.99999999E-06  9.99999975E-06  3.99999999E-06  3.99999999E-06  3.99999999E-06  3.99999999E-06  3.99999999E-06  3.99999999E-06  3.99999999E-06
      3.99999999E-06  9.99999975E-06  3.99999999E-06  9.99999975E-06  3.99999999E-06  3.99999999E-06  3.99999999E-06  3.99999999E-06  3.99999999E-06  3.99999999E-06  3.99999999E-06  3.99999999E-06  3.99999999E-06  3.99999999E-06  3.99999999E-06  3.99999999E-06  3.99999999E-06  3.99999999E-06  3.99999999E-06  3.99999999E-06
      3.99999999E-06  3.99999999E-06  3.99999999E-06  3.99999999E-06  3.99999999E-06  3.99999999E-06  3.99999999E-06  3.99999999E-06  3.99999999E-06  9.99999975E-06  9.99999975E-06  3.99999999E-06  9.99999975E-06  3.99999999E-06  3.99999999E-06  3.99999999E-06  3.99999999E-06  3.99999999E-06  3.99999999E-06  3.99999999E-06
      3.99999999E-06  9.99999975E-06  9.99999975E-06  9.99999975E-06  9.99999975E-06  9.99999975E-06  9.99999975E-06  9.99999975E-06  3.99999999E-06  9.99999975E-06  9.99999975E-06  9.99999975E-06  3.99999999E-06  3.99999999E-06  3.99999999E-06  3.99999999E-06  3.99999999E-06  9.99999975E-06  3.99999999E-06  3.99999999E-06
      3.99999999E-06  3.99999999E-06  3.99999999E-06  3.99999999E-06  3.99999999E-06  3.99999999E-06  3.99999999E-06  3.99999999E-06  3.99999999E-06  3.99999999E-06  3.99999999E-06  3.99999999E-06  3.99999999E-06  3.99999999E-06  9.99999975E-06  3.99999999E-06  9.99999975E-06  9.99999975E-06  9.99999975E-06  9.99999975E-06
      9.99999975E-06  9.99999975E-06  6.00000021E-06  6.00000021E-06  3.99999999E-06  3.99999999E-06  3.99999999E-06  3.99999999E-06  3.99999999E-06  6.00000021E-06  6.00000021E-06  6.00000021E-06  6.00000021E-06  3.99999999E-06  3.99999999E-06  9.99999975E-06  3.99999999E-06  9.99999975E-06  9.99999975E-06  9.99999975E-06
      9.99999975E-06  9.99999975E-06  9.99999975E-06  3.99999999E-06  9.99999975E-06  9.99999975E-06  9.99999975E-06  9.99999975E-06  9.99999975E-06  9.99999975E-06  9.99999975E-06  9.99999975E-06  9.99999975E-06  9.99999975E-06  3.99999999E-06  3.99999999E-06  9.99999975E-06  9.99999975E-06  9.99999975E-06  9.99999975E-06
      9.99999975E-06  9.99999975E-06  9.99999975E-06  9.99999975E-06  9.99999975E-06  9.99999975E-06  9.99999975E-06  9.99999975E-06  9.99999975E-06  9.99999975E-06  9.99999975E-06  9.99999975E-06  9.99999975E-06  9.99999975E-06  9.99999975E-06  9.99999975E-06  9.99999975E-06  6.00000021E-06  9.99999975E-06  6.00000021E-06
      9.99999975E-06  9.99999975E-06  3.99999999E-06  3.99999999E-06  3.99999999E-06  6.00000021E-06  9.99999975E-06  9.99999975E-06  9.99999975E-06  9.99999975E-06  3.99999999E-06  3.99999999E-06  3.99999999E-06  3.99999999E-06  3.99999999E-06  3.99999999E-06  3.99999999E-06  3.99999999E-06  3.99999999E-06  3.99999999E-06
      3.99999999E-06  3.99999999E-06  3.99999999E-06  3.99999999E-06  9.99999975E-06  3.99999999E-06  9.99999975E-06  9.99999975E-06  9.99999975E-06  9.99999975E-06  9.99999975E-06  3.99999999E-06  3.99999999E-06  3.99999999E-06  3.99999999E-06  3.99999999E-06  3.99999999E-06  3.99999999E-06  3.99999999E-06  9.99999975E-06
      9.99999975E-06  3.99999999E-06  9.99999975E-06  9.99999975E-06  9.99999975E-06  9.99999975E-06  9.99999975E-06  3.99999999E-06  3.99999999E-06  3.99999999E-06  3.99999999E-06  3.99999999E-06  9.99999975E-06  3.99999999E-06  3.99999999E-06  9.99999975E-06  3.99999999E-06  9.99999975E-06  3.99999999E-06  3.99999999E-06
      3.99999999E-06  3.99999999E-06  3.99999999E-06  9.99999975E-06  3.99999999E-06  9.99999975E-06  9.99999975E-06  3.99999999E-06  3.99999999E-06  3.99999999E-06  3.99999999E-06  3.99999999E-06  3.99999999E-06  3.99999999E-06  3.99999999E-06  3.99999999E-06  3.99999999E-06  3.99999999E-06  3.99999999E-06  3.99999999E-06
      3.99999999E-06  3.99999999E-06  3.99999999E-06  3.99999999E-06  3.99999999E-06  3.99999999E-06  3.99999999E-06  3.99999999E-06  3.99999999E-06  3.99999999E-06  3.99999999E-06  3.99999999E-06  3.99999999E-06  3.99999999E-06  3.99999999E-06  3.99999999E-06  3.99999999E-06  3.99999999E-06  3.99999999E-06  3.99999999E-06
      3.99999999E-06  3.99999999E-06  3.99999999E-06  3.99999999E-06  3.99999999E-06  3.99999999E-06  3.99999999E-06  3.99999999E-06  3.99999999E-06  3.99999999E-06  3.99999999E-06  3.99999999E-06  3.99999999E-06  3.99999999E-06  3.99999999E-06  3.99999999E-06  3.99999999E-06  3.99999999E-06  3.99999999E-06  3.99999999E-06
      3.99999999E-06  3.99999999E-06  3.99999999E-06  3.99999999E-06  3.99999999E-06  3.99999999E-06  3.99999999E-06  3.99999999E-06  3.99999999E-06  3.99999999E-06  3.99999999E-06  3.99999999E-06  3.99999999E-06  3.99999999E-06  9.99999975E-06  9.99999975E-06  3.99999999E-06  3.99999999E-06  3.99999999E-06  3.99999999E-06
      3.99999999E-06  9.99999975E-06  3.99999999E-06  9.99999975E-06  9.99999975E-06  9.99999975E-06  9.99999975E-06  9.99999975E-06  3.99999999E-06  3.99999999E-06  9.99999975E-06  3.99999999E-06  3.99999999E-06  3.99999999E-06  3.99999999E-06  3.99999999E-06  9.99999975E-06  3.99999999E-06  3.99999999E-06  3.99999999E-06
      3.99999999E-06  3.99999999E-06  3.99999999E-06  3.99999999E-06  3.99999999E-06  3.99999999E-06  3.99999999E-06  3.99999999E-06  3.99999999E-06  3.99999999E-06  3.99999999E-06  3.99999999E-06  3.99999999E-06  3.99999999E-06  3.99999999E-06  3.99999999E-06  3.99999999E-06  3.99999999E-06  3.99999999E-06  3.99999999E-06
      3.99999999E-06  3.99999999E-06  3.99999999E-06  3.99999999E-06  3.99999999E-06  3.99999999E-06  3.99999999E-06  9.99999975E-06  3.99999999E-06  3.99999999E-06  3.99999999E-06  3.99999999E-06  3.99999999E-06  9.99999975E-06  3.99999999E-06  3.99999999E-06  3.99999999E-06  3.99999999E-06  9.99999975E-06  9.99999975E-06
      3.99999999E-06  3.99999999E-06  9.99999975E-06  9.99999975E-06  9.99999975E-06  9.99999975E-06  9.99999975E-06  3.99999999E-06  9.99999975E-06  9.99999975E-06  3.99999999E-06  3.99999999E-06  3.99999999E-06  3.99999999E-06  9.99999975E-06  9.99999975E-06  3.99999999E-06  9.99999975E-06  9.99999975E-06  9.99999975E-06
      9.99999975E-06  9.99999975E-06  3.99999999E-06  3.99999999E-06  9.99999975E-06  9.99999975E-06  3.99999999E-06  3.99999999E-06  9.99999975E-06  9.99999975E-06  9.99999975E-06  9.99999975E-06  3.99999999E-06  3.99999999E-06  3.99999999E-06  3.99999999E-06  9.99999975E-06  9.99999975E-06  9.99999975E-06  9.99999975E-06
      3.99999999E-06  3.99999999E-06  3.99999999E-06  3.99999999E-06  3.99999999E-06  3.99999999E-06  3.99999999E-06  3.99999999E-06  3.99999999E-06  3.99999999E-06  3.99999999E-06  3.99999999E-06  3.99999999E-06  3.99999999E-06  3.99999999E-06  3.99999999E-06  3.99999999E-06  3.99999999E-06  3.99999999E-06  3.99999999E-06
      3.99999999E-06  3.99999999E-06  3.99999999E-06  3.99999999E-06  3.99999999E-06  9.99999975E-06  3.99999999E-06  9.99999975E-06  3.99999999E-06  3.99999999E-06  3.99999999E-06  3.99999999E-06  3.99999999E-06  9.99999975E-06  3.99999999E-06  9.99999975E-06  9.99999975E-06  3.99999999E-06  9.99999975E-06  3.99999999E-06
      3.99999999E-06  3.99999999E-06  3.99999999E-06  3.99999999E-06  9.99999975E-06  3.99999999E-06  9.99999975E-06  6.00000021E-06  3.99999999E-06  3.99999999E-06  3.99999999E-06  3.99999999E-06  3.99999999E-06  3.99999999E-06  3.99999999E-06  3.99999999E-06  3.99999999E-06  3.99999999E-06  3.99999999E-06  3.99999999E-06
      3.99999999E-06  3.99999999E-06  3.99999999E-06  3.99999999E-06  3.99999999E-06  3.99999999E-06  3.99999999E-06  3.99999999E-06  3.99999999E-06  3.99999999E-06  3.99999999E-06  3.99999999E-06  3.99999999E-06  3.99999999E-06  9.99999975E-06  3.99999999E-06  3.99999999E-06  9.99999975E-06  9.99999975E-06  9.99999975E-06
      9.99999975E-06  9.99999975E-06  9.99999975E-06  3.99999999E-06  3.99999999E-06  3.99999999E-06  3.99999999E-06  3.99999999E-06  9.99999975E-06  9.99999975E-06  9.99999975E-06  3.99999999E-06  3.99999999E-06  3.99999999E-06  3.99999999E-06  9.99999975E-06  9.99999975E-06  9.99999975E-06  9.99999975E-06  9.99999975E-06
      9.99999975E-06  9.99999975E-06  9.99999975E-06  3.99999999E-06  9.99999975E-06  9.99999975E-06  9.99999975E-06  9.99999975E-06  9.99999975E-06  9.99999975E-06  9.99999975E-06  9.99999975E-06  9.99999975E-06  9.99999975E-06  9.99999975E-06  9.99999975E-06  9.99999975E-06  9.99999975E-06  9.99999975E-06  9.99999975E-06
      9.99999975E-06  9.99999975E-06  9.99999975E-06  9.99999975E-06  9.99999975E-06  9.99999975E-06  9.99999975E-06  9.99999975E-06  9.99999975E-06  9.99999975E-06  6.00000021E-06  9.99999975E-06  3.99999999E-06  6.00000021E-06  3.99999999E-06  9.99999975E-06  9.99999975E-06  9.99999975E-06  9.99999975E-06  9.99999975E-06
      9.99999975E-06  9.99999975E-06  9.99999975E-06  9.99999975E-06  9.99999975E-06  9.99999975E-06  9.99999975E-06  9.99999975E-06  9.99999975E-06  9.99999975E-06  9.99999975E-06  9.99999975E-06  9.99999975E-06  9.99999975E-06  3.99999999E-06  9.99999975E-06  9.99999975E-06  9.99999975E-06  9.99999975E-06  9.99999975E-06
      9.99999975E-06  9.99999975E-06  3.99999999E-06  3.99999999E-06  3.99999999E-06  3.99999999E-06  3.99999999E-06  3.99999999E-06  3.99999999E-06  3.99999999E-06  3.99999999E-06  3.99999999E-06  9.99999975E-06  3.99999999E-06  3.99999999E-06  3.99999999E-06  3.99999999E-06  3.99999999E-06  3.99999999E-06  3.99999999E-06
      3.99999999E-06  3.99999999E-06  3.99999999E-06  3.99999999E-06  3.99999999E-06  3.99999999E-06  3.99999999E-06  3.99999999E-06  3.99999999E-06  3.99999999E-06  3.99999999E-06  3.99999999E-06  3.99999999E-06  3.99999999E-06  3.99999999E-06  3.99999999E-06  3.99999999E-06  3.99999999E-06  3.99999999E-06  3.99999999E-06
      3.99999999E-06  3.99999999E-06  3.99999999E-06  3.99999999E-06  3.99999999E-06  3.99999999E-06  3.99999999E-06  3.99999999E-06  3.99999999E-06  3.99999999E-06  3.99999999E-06  9.99999975E-06  3.99999999E-06  3.99999999E-06  3.99999999E-06  3.99999999E-06  3.99999999E-06  9.99999975E-06  3.99999999E-06  3.99999999E-06
      9.99999975E-06  9.99999975E-06  9.99999975E-06  3.99999999E-06  3.99999999E-06  3.99999999E-06  3.99999999E-06  3.99999999E-06  9.99999975E-06  3.99999999E-06  3.99999999E-06  3.99999999E-06  3.99999999E-06  3.99999999E-06  3.99999999E-06  3.99999999E-06  3.99999999E-06  3.99999999E-06  3.99999999E-06  3.99999999E-06
      3.99999999E-06  3.99999999E-06  3.99999999E-06  3.99999999E-06  3.99999999E-06  3.99999999E-06  3.99999999E-06  3.99999999E-06  3.99999999E-06  3.99999999E-06  3.99999999E-06  3.99999999E-06  3.99999999E-06  3.99999999E-06  3.99999999E-06  3.99999999E-06  3.99999999E-06  3.99999999E-06  3.99999999E-06  3.99999999E-06
      3.99999999E-06  3.99999999E-06  3.99999999E-06  3.99999999E-06  3.99999999E-06  3.99999999E-06  3.99999999E-06  3.99999999E-06  3.99999999E-06  3.99999999E-06  3.99999999E-06  3.99999999E-06  3.99999999E-06  3.99999999E-06  3.99999999E-06  3.99999999E-06  3.99999999E-06  3.99999999E-06  3.99999999E-06  3.99999999E-06
      3.99999999E-06  3.99999999E-06  3.99999999E-06  3.99999999E-06  3.99999999E-06  3.99999999E-06  3.99999999E-06  3.99999999E-06  3.99999999E-06  3.99999999E-06  3.99999999E-06  3.99999999E-06  3.99999999E-06  3.99999999E-06  9.99999975E-06  9.99999975E-06  9.99999975E-06  9.99999975E-06  3.99999999E-06  9.99999975E-06
      9.99999975E-06  9.99999975E-06  9.99999975E-06  3.99999999E-06  3.99999999E-06  3.99999999E-06  9.99999975E-06  9.99999975E-06  9.99999975E-06  9.99999975E-06  3.99999999E-06  3.99999999E-06  3.99999999E-06  3.99999999E-06  3.99999999E-06  3.99999999E-06  3.99999999E-06  3.99999999E-06  3.99999999E-06  3.99999999E-06
      3.99999999E-06  3.99999999E-06  3.99999999E-06  3.99999999E-06  3.99999999E-06  3.99999999E-06  3.99999999E-06  3.99999999E-06  3.99999999E-06  3.99999999E-06  3.99999999E-06  3.99999999E-06  3.99999999E-06  3.99999999E-06  3.99999999E-06  3.99999999E-06  3.99999999E-06  3.99999999E-06  3.99999999E-06  3.99999999E-06
      3.99999999E-06  3.99999999E-06  3.99999999E-06  3.99999999E-06  3.99999999E-06  3.99999999E-06  3.99999999E-06  3.99999999E-06  3.99999999E-06  3.99999999E-06  3.99999999E-06  3.99999999E-06  3.99999999E-06  3.99999999E-06  3.99999999E-06  3.99999999E-06  3.99999999E-06  3.99999999E-06  3.99999999E-06  3.99999999E-06
      3.99999999E-06  3.99999999E-06  3.99999999E-06  3.99999999E-06  3.99999999E-06  3.99999999E-06  3.99999999E-06  3.99999999E-06  3.99999999E-06  3.99999999E-06  3.99999999E-06  3.99999999E-06  3.99999999E-06  3.99999999E-06  3.99999999E-06  3.99999999E-06  3.99999999E-06  3.99999999E-06  3.99999999E-06  3.99999999E-06
      3.99999999E-06  3.99999999E-06  3.99999999E-06  3.99999999E-06  3.99999999E-06  3.99999999E-06  3.99999999E-06  3.99999999E-06  3.99999999E-06  3.99999999E-06  3.99999999E-06  3.99999999E-06  3.99999999E-06  3.99999999E-06  9.99999975E-06  9.99999975E-06  9.99999975E-06  9.99999975E-06  3.99999999E-06  3.99999999E-06
      3.99999999E-06  3.99999999E-06  9.99999975E-06  9.99999975E-06  9.99999975E-06  9.99999975E-06  3.99999999E-06  3.99999999E-06  3.99999999E-06  3.99999999E-06  3.99999999E-06  3.99999999E-06  3.99999999E-06  3.99999999E-06  3.99999999E-06  3.99999999E-06  3.99999999E-06  3.99999999E-06  3.99999999E-06  3.99999999E-06
      3.99999999E-06  3.99999999E-06  3.99999999E-06  3.99999999E-06  3.99999999E-06  3.99999999E-06  3.99999999E-06  3.99999999E-06  3.99999999E-06  3.99999999E-06  3.99999999E-06  3.99999999E-06  3.99999999E-06  9.99999975E-06  3.99999999E-06  3.99999999E-06  3.99999999E-06  3.99999999E-06  3.99999999E-06  9.99999975E-06
      3.99999999E-06  3.99999999E-06  9.99999975E-06  3.99999999E-06  9.99999975E-06  9.99999975E-06  6.00000021E-06  9.99999975E-06  6.00000021E-06  3.99999999E-06  3.99999999E-06  3.99999999E-06  6.00000021E-06  9.99999975E-06  6.00000021E-06  3.99999999E-06  3.99999999E-06  6.00000021E-06  9.99999975E-06  9.99999975E-06
      9.99999975E-06  9.99999975E-06  6.00000021E-06  6.00000021E-06  9.99999975E-06  9.99999975E-06  6.00000021E-06  6.00000021E-06  6.00000021E-06  6.00000021E-06  6.00000021E-06  9.99999975E-06  9.99999975E-06  9.99999975E-06  9.99999975E-06  9.99999975E-06  9.99999975E-06  9.99999975E-06  9.99999975E-06  9.99999975E-06
      9.99999975E-06  9.99999975E-06  3.99999999E-06  3.99999999E-06  9.99999975E-06  9.99999975E-06  9.99999975E-06  9.99999975E-06  9.99999975E-06  9.99999975E-06  9.99999975E-06  9.99999975E-06  9.99999975E-06  9.99999975E-06  9.99999975E-06  9.99999975E-06  9.99999975E-06  9.99999975E-06  9.99999975E-06  9.99999975E-06
      9.99999975E-06  9.99999975E-06  9.99999975E-06  9.99999975E-06  9.99999975E-06  9.99999975E-06  9.99999975E-06  9.99999975E-06  9.99999975E-06  9.99999975E-06  9.99999975E-06  9.99999975E-06  9.99999975E-06  9.99999975E-06  9.99999975E-06  9.99999975E-06  9.99999975E-06  9.99999975E-06  9.99999975E-06  9.99999975E-06
      9.99999975E-06  9.99999975E-06  3.99999999E-06  9.99999975E-06  3.99999999E-06  3.99999999E-06  3.99999999E-06  9.99999975E-06  9.99999975E-06  9.99999975E-06  9.99999975E-06  9.99999975E-06  9.99999975E-06  9.99999975E-06  3.99999999E-06  3.99999999E-06  3.99999999E-06  3.99999999E-06  3.99999999E-06  3.99999999E-06
      3.99999999E-06  3.99999999E-06  3.99999999E-06  9.99999975E-06  9.99999975E-06  9.99999975E-06  9.99999975E-06  9.99999975E-06  6.00000021E-06  9.99999975E-06  6.00000021E-06  9.99999975E-06  9.99999975E-06  9.99999975E-06  9.99999975E-06  9.99999975E-06  6.00000021E-06  6.00000021E-06  6.00000021E-06  6.00000021E-06
      6.00000021E-06  3.99999999E-06  6.00000021E-06  3.99999999E-06  9.99999975E-06  9.99999975E-06  3.99999999E-06  9.99999975E-06  3.99999999E-06  3.99999999E-06  9.99999975E-06  9.99999975E-06  9.99999975E-06  9.99999975E-06  3.99999999E-06  3.99999999E-06  3.99999999E-06  3.99999999E-06  3.99999999E-06  3.99999999E-06
      3.99999999E-06  3.99999999E-06  9.99999975E-06  3.99999999E-06  9.99999975E-06  9.99999975E-06  9.99999975E-06  9.99999975E-06  9.99999975E-06  9.99999975E-06  3.99999999E-06  3.99999999E-06  3.99999999E-06  3.99999999E-06  3.99999999E-06  3.99999999E-06  3.99999999E-06  3.99999999E-06  3.99999999E-06  3.99999999E-06
      9.99999975E-06  9.99999975E-06  3.99999999E-06  3.99999999E-06  9.99999975E-06  9.99999975E-06  3.99999999E-06  3.99999999E-06  3.99999999E-06  3.99999999E-06  3.99999999E-06  3.99999999E-06  3.99999999E-06  3.99999999E-06  3.99999999E-06  3.99999999E-06  9.99999975E-06  9.99999975E-06  3.99999999E-06  3.99999999E-06
      3.99999999E-06  3.99999999E-06  3.99999999E-06  3.99999999E-06  3.99999999E-06  3.99999999E-06  3.99999999E-06  3.99999999E-06  3.99999999E-06  3.99999999E-06  3.99999999E-06  3.99999999E-06  3.99999999E-06  3.99999999E-06  3.99999999E-06  3.99999999E-06  3.99999999E-06  3.99999999E-06  3.99999999E-06  3.99999999E-06
      3.99999999E-06  3.99999999E-06  3.99999999E-06  3.99999999E-06  3.99999999E-06  3.99999999E-06  3.99999999E-06  3.99999999E-06  3.99999999E-06  3.99999999E-06  3.99999999E-06  3.99999999E-06  3.99999999E-06  3.99999999E-06  3.99999999E-06  3.99999999E-06  3.99999999E-06  3.99999999E-06  3.99999999E-06  3.99999999E-06
      3.99999999E-06  3.99999999E-06  3.99999999E-06  3.99999999E-06  3.99999999E-06  3.99999999E-06  3.99999999E-06  3.99999999E-06  3.99999999E-06  3.99999999E-06  3.99999999E-06  3.99999999E-06  3.99999999E-06  3.99999999E-06  3.99999999E-06  3.99999999E-06  3.99999999E-06  3.99999999E-06  3.99999999E-06  3.99999999E-06
      3.99999999E-06  3.99999999E-06  3.99999999E-06  3.99999999E-06  3.99999999E-06  3.99999999E-06  3.99999999E-06  3.99999999E-06  3.99999999E-06  3.99999999E-06  3.99999999E-06  3.99999999E-06  3.99999999E-06  3.99999999E-06  3.99999999E-06  3.99999999E-06  3.99999999E-06  3.99999999E-06  3.99999999E-06  3.99999999E-06