BEGIN options
  BOUNDNAMES
  SAVE_FLOWS
  OBS6  FILEIN  DC_MF6.uzf.obs
  SIMULATE_GWSEEP
END options

BEGIN dimensions
  NUZFCELLS  11536
  NTRAILWAVES  7
  NWAVESETS  250
END dimensions

BEGIN packagedata
  1  1 5  1  1       0.50000000     100.00000000       0.10000000       0.25000000       0.12000000       3.50000000  hru_1
  2  1 6  1  1       0.50000000     100.00000000       0.10000000       0.25000000       0.12000000       3.50000000  hru_1
  3  1 9  1  1       0.50000000     100.00000000       0.10000000       0.25000000       0.12000000       3.50000000  hru_1
  4  1 10  1  1       0.50000000     100.00000000       0.10000000       0.25000000       0.12000000       3.50000000  hru_1
  5  1 13  1  1       0.50000000     100.00000000       0.10000000       0.25000000       0.12000000       3.50000000  hru_1
  6  1 14  1  1       0.50000000     100.00000000       0.10000000       0.25000000       0.12000000       3.50000000  hru_1
  7  2 17  1  1       0.50000000     100.00000000       0.10000000       0.25000000       0.12000000       3.50000000  hru_1
  8  2 18  1  1       0.50000000     100.00000000       0.10000000       0.25000000       0.12000000       3.50000000  hru_1
  9  2 23  1  1       0.50000000     100.00000000       0.10000000       0.25000000       0.12000000       3.50000000  hru_1
  10  2 24  1  1       0.50000000     100.00000000       0.10000000       0.25000000       0.12000000       3.50000000  hru_1
  11  1 25  1  1       0.50000000     100.00000000       0.10000000       0.25000000       0.12000000       3.50000000  hru_1
  12  1 26  1  1       0.50000000     100.00000000       0.10000000       0.25000000       0.12000000       3.50000000  hru_1
  13  2 30  1  1       0.50000000     100.00000000       0.10000000       0.25000000       0.12000000       3.50000000  hru_1
  14  2 31  1  1       0.50000000     100.00000000       0.10000000       0.25000000       0.12000000       3.50000000  hru_1
  15  2 32  1  1       0.50000000     100.00000000       0.10000000       0.25000000       0.12000000       3.50000000  hru_1
  16  1 33  1  1       0.50000000     100.00000000       0.10000000       0.25000000       0.12000000       3.50000000  hru_1
  17  2 34  1  1       0.50000000     100.00000000       0.10000000       0.25000000       0.12000000       3.50000000  hru_1
  18  2 35  1  1       0.50000000     100.00000000       0.10000000       0.25000000       0.12000000       3.50000000  hru_1
  19  1 36  1  1       0.50000000     100.00000000       0.10000000       0.25000000       0.12000000       3.50000000  hru_1
  20  1 43  1  1       0.50000000     100.00000000       0.10000000       0.25000000       0.12000000       3.50000000  hru_1
  21  1 44  1  1       0.50000000     100.00000000       0.10000000       0.25000000       0.12000000       3.50000000  hru_1
  22  2 45  1  1       0.50000000     100.00000000       0.10000000       0.25000000       0.12000000       3.50000000  hru_1
  23  2 46  1  1       0.50000000     100.00000000       0.10000000       0.25000000       0.12000000       3.50000000  hru_1
  24  2 47  1  1       0.50000000     100.00000000       0.10000000       0.25000000       0.12000000       3.50000000  hru_1
  25  2 48  1  1       0.50000000     100.00000000       0.10000000       0.25000000       0.12000000       3.50000000  hru_1
  26  2 49  1  1       0.50000000     100.00000000       0.10000000       0.25000000       0.12000000       3.50000000  hru_1
  27  2 50  1  1       0.50000000     100.00000000       0.10000000       0.25000000       0.12000000       3.50000000  hru_1
  28  2 57  1  1       0.50000000     100.00000000       0.10000000       0.25000000       0.12000000       3.50000000  hru_5
  29  2 58  1  1       0.50000000     100.00000000       0.10000000       0.25000000       0.12000000       3.50000000  hru_3
  30  2 59  1  1       0.50000000     100.00000000       0.10000000       0.25000000       0.12000000       3.50000000  hru_3
  31  2 61  1  1       0.50000000     100.00000000       0.10000000       0.25000000       0.12000000       3.50000000  hru_1
  32  2 62  1  1       0.50000000     100.00000000       0.10000000       0.25000000       0.12000000       3.50000000  hru_1
  33  2 63  1  1       0.50000000     100.00000000       0.10000000       0.25000000       0.12000000       3.50000000  hru_1
  34  1 64  1  1       0.50000000     100.00000000       0.10000000       0.25000000       0.12000000       3.50000000  hru_1
  35  2 65  1  1       0.50000000     100.00000000       0.10000000       0.25000000       0.12000000       3.50000000  hru_1
  36  2 66  1  1       0.50000000     100.00000000       0.10000000       0.25000000       0.12000000       3.50000000  hru_1
  37  2 67  1  1       0.50000000     100.00000000       0.10000000       0.25000000       0.12000000       3.50000000  hru_1
  38  2 68  1  1       0.50000000     100.00000000       0.10000000       0.25000000       0.12000000       3.50000000  hru_1
  39  2 69  1  1       0.50000000     100.00000000       0.10000000       0.25000000       0.12000000       3.50000000  hru_1
  40  2 71  1  1       0.50000000     100.00000000       0.10000000       0.25000000       0.12000000       3.50000000  hru_5
  41  2 72  1  1       0.50000000     100.00000000       0.10000000       0.25000000       0.12000000       3.50000000  hru_5
  42  2 73  1  1       0.50000000     100.00000000       0.10000000       0.25000000       0.12000000       3.50000000  hru_5
  43  2 74  1  1       0.50000000     100.00000000       0.10000000       0.25000000       0.12000000       3.50000000  hru_5
  44  2 75  1  1       0.50000000     100.00000000       0.10000000       0.25000000       0.12000000       3.50000000  hru_5
  45  2 76  1  1       0.50000000     100.00000000       0.10000000       0.25000000       0.12000000       3.50000000  hru_5
  46  2 78  1  1       0.50000000     100.00000000       0.10000000       0.25000000       0.12000000       3.50000000  hru_5
  47  2 79  1  1       0.50000000     100.00000000       0.10000000       0.25000000       0.12000000       3.50000000  hru_5
  48  2 80  1  1       0.50000000     100.00000000       0.10000000       0.25000000       0.12000000       3.50000000  hru_3
  49  2 81  1  1       0.50000000     100.00000000       0.10000000       0.25000000       0.12000000       3.50000000  hru_3
  50  2 82  1  1       0.50000000     100.00000000       0.10000000       0.25000000       0.12000000       3.50000000  hru_1
  51  2 83  1  1       0.50000000     100.00000000       0.10000000       0.25000000       0.12000000       3.50000000  hru_1
  52  2 84  1  1       0.50000000     100.00000000       0.10000000       0.25000000       0.12000000       3.50000000  hru_1
  53  2 85  1  1       0.50000000     100.00000000       0.10000000       0.25000000       0.12000000       3.50000000  hru_1
  54  2 86  1  1       0.50000000     100.00000000       0.10000000       0.25000000       0.12000000       3.50000000  hru_1
  55  2 87  1  1       0.50000000     100.00000000       0.10000000       0.25000000       0.12000000       3.50000000  hru_1
  56  2 88  1  1       0.50000000     100.00000000       0.10000000       0.25000000       0.12000000       3.50000000  hru_1
  57  2 89  1  1       0.50000000     100.00000000       0.10000000       0.25000000       0.12000000       3.50000000  hru_1
  58  2 90  1  1       0.50000000     100.00000000       0.10000000       0.25000000       0.12000000       3.50000000  hru_1
  59  2 91  1  1       0.50000000     100.00000000       0.10000000       0.25000000       0.12000000       3.50000000  hru_1
  60  2 92  1  1       0.50000000     100.00000000       0.10000000       0.25000000       0.12000000       3.50000000  hru_1
  61  2 93  1  1       0.50000000     100.00000000       0.10000000       0.25000000       0.12000000       3.50000000  hru_1
  62  2 94  1  1       0.50000000     100.00000000       0.10000000       0.25000000       0.12000000       3.50000000  hru_1
  63  2 95  1  1       0.50000000     100.00000000       0.10000000       0.25000000       0.12000000       3.50000000  hru_1
  64  1 96  1  1       0.50000000     100.00000000       0.10000000       0.25000000       0.12000000       3.50000000  hru_1
  65  1 97  1  1       0.50000000     100.00000000       0.10000000       0.25000000       0.12000000       3.50000000  hru_1
  66  2 99  1  1       0.50000000     100.00000000       0.10000000       0.25000000       0.12000000       3.50000000  hru_5
  67  2 100  1  1       0.50000000     100.00000000       0.10000000       0.25000000       0.12000000       3.50000000  hru_5
  68  2 101  1  1       0.50000000     100.00000000       0.10000000       0.25000000       0.12000000       3.50000000  hru_5
  69  2 102  1  1       0.50000000     100.00000000       0.10000000       0.25000000       0.12000000       3.50000000  hru_5
  70  2 103  1  1       0.50000000     100.00000000       0.10000000       0.25000000       0.12000000       3.50000000  hru_5
  71  2 104  1  1       0.50000000     100.00000000       0.10000000       0.25000000       0.12000000       3.50000000  hru_5
  72  2 105  1  1       0.50000000     100.00000000       0.10000000       0.25000000       0.12000000       3.50000000  hru_5
  73  2 106  1  1       0.50000000     100.00000000       0.10000000       0.25000000       0.12000000       3.50000000  hru_5
  74  2 107  1  1       0.50000000     100.00000000       0.10000000       0.25000000       0.12000000       3.50000000  hru_5
  75  2 108  1  1       0.50000000     100.00000000       0.10000000       0.25000000       0.12000000       3.50000000  hru_3
  76  2 109  1  1       0.50000000     100.00000000       0.10000000       0.25000000       0.12000000       3.50000000  hru_3
  77  1 110  1  1       0.50000000     100.00000000       0.10000000       0.25000000       0.12000000       3.50000000  hru_3
  78  2 111  1  1       0.50000000     100.00000000       0.10000000       0.25000000       0.12000000       3.50000000  hru_1
  79  2 112  1  1       0.50000000     100.00000000       0.10000000       0.25000000       0.12000000       3.50000000  hru_1
  80  1 113  1  1       0.50000000     100.00000000       0.10000000       0.25000000       0.12000000       3.50000000  hru_1
  81  2 114  1  1       0.50000000     100.00000000       0.10000000       0.25000000       0.12000000       3.50000000  hru_1
  82  2 115  1  1       0.50000000     100.00000000       0.10000000       0.25000000       0.12000000       3.50000000  hru_1
  83  2 116  1  1       0.50000000     100.00000000       0.10000000       0.25000000       0.12000000       3.50000000  hru_1
  84  2 117  1  1       0.50000000     100.00000000       0.10000000       0.25000000       0.12000000       3.50000000  hru_1
  85  2 118  1  1       0.50000000     100.00000000       0.10000000       0.25000000       0.12000000       3.50000000  hru_1
  86  2 119  1  1       0.50000000     100.00000000       0.10000000       0.25000000       0.12000000       3.50000000  hru_1
  87  2 120  1  1       0.50000000     100.00000000       0.10000000       0.25000000       0.12000000       3.50000000  hru_1
  88  2 121  1  1       0.50000000     100.00000000       0.10000000       0.25000000       0.12000000       3.50000000  hru_1
  89  2 122  1  1       0.50000000     100.00000000       0.10000000       0.25000000       0.12000000       3.50000000  hru_1
  90  2 123  1  1       0.50000000     100.00000000       0.10000000       0.25000000       0.12000000       3.50000000  hru_1
  91  2 124  1  1       0.50000000     100.00000000       0.10000000       0.25000000       0.12000000       3.50000000  hru_1
  92  2 125  1  1       0.50000000     100.00000000       0.10000000       0.25000000       0.12000000       3.50000000  hru_1
  93  2 126  1  1       0.50000000     100.00000000       0.10000000       0.25000000       0.12000000       3.50000000  hru_1
  94  2 127  1  1       0.50000000     100.00000000       0.10000000       0.25000000       0.12000000       3.50000000  hru_1
  95  2 128  1  1       0.50000000     100.00000000       0.10000000       0.25000000       0.12000000       3.50000000  hru_1
  96  3 129  1  1       0.50000000     100.00000000       0.10000000       0.25000000       0.12000000       3.50000000  hru_1
  97  2 130  1  1       0.50000000     100.00000000       0.10000000       0.25000000       0.12000000       3.50000000  hru_1
  98  2 131  1  1       0.50000000     100.00000000       0.10000000       0.25000000       0.12000000       3.50000000  hru_1
  99  2 132  1  1       0.50000000     100.00000000       0.10000000       0.25000000       0.12000000       3.50000000  hru_1
  100  2 133  1  1       0.50000000     100.00000000       0.10000000       0.25000000       0.12000000       3.50000000  hru_1
  101  2 134  1  1       0.50000000     100.00000000       0.10000000       0.25000000       0.12000000       3.50000000  hru_1
  102  2 135  1  1       0.50000000     100.00000000       0.10000000       0.25000000       0.12000000       3.50000000  hru_1
  103  2 136  1  1       0.50000000     100.00000000       0.10000000       0.25000000       0.12000000       3.50000000  hru_1
  104  2 137  1  1       0.50000000     100.00000000       0.10000000       0.25000000       0.12000000       3.50000000  hru_1
  105  2 138  1  1       0.50000000     100.00000000       0.10000000       0.25000000       0.12000000       3.50000000  hru_1
  106  2 139  1  1       0.50000000     100.00000000       0.10000000       0.25000000       0.12000000       3.50000000  hru_1
  107  2 140  1  1       0.50000000     100.00000000       0.10000000       0.25000000       0.12000000       3.50000000  hru_1
  108  2 141  1  1       0.50000000     100.00000000       0.10000000       0.25000000       0.12000000       3.50000000  hru_1
  109  2 142  1  1       0.50000000     100.00000000       0.10000000       0.25000000       0.12000000       3.50000000  hru_1
  110  2 143  1  1       0.50000000     100.00000000       0.10000000       0.25000000       0.12000000       3.50000000  hru_1
  111  2 144  1  1       0.50000000     100.00000000       0.10000000       0.25000000       0.12000000       3.50000000  hru_1
  112  2 145  1  1       0.50000000     100.00000000       0.10000000       0.25000000       0.12000000       3.50000000  hru_1
  113  2 146  1  1       0.50000000     100.00000000       0.10000000       0.25000000       0.12000000       3.50000000  hru_1
  114  2 147  1  1       0.50000000     100.00000000       0.10000000       0.25000000       0.12000000       3.50000000  hru_1
  115  2 148  1  1       0.50000000     100.00000000       0.10000000       0.25000000       0.12000000       3.50000000  hru_1
  116  2 149  1  1       0.50000000     100.00000000       0.10000000       0.25000000       0.12000000       3.50000000  hru_1
  117  2 150  1  1       0.50000000     100.00000000       0.10000000       0.25000000       0.12000000       3.50000000  hru_1
  118  2 151  1  1       0.50000000     100.00000000       0.10000000       0.25000000       0.12000000       3.50000000  hru_1
  119  2 152  1  1       0.50000000     100.00000000       0.10000000       0.25000000       0.12000000       3.50000000  hru_1
  120  2 153  1  1       0.50000000     100.00000000       0.10000000       0.25000000       0.12000000       3.50000000  hru_1
  121  2 154  1  1       0.50000000     100.00000000       0.10000000       0.25000000       0.12000000       3.50000000  hru_1
  122  2 155  1  1       0.50000000     100.00000000       0.10000000       0.25000000       0.12000000       3.50000000  hru_1
  123  2 156  1  1       0.50000000     100.00000000       0.10000000       0.25000000       0.12000000       3.50000000  hru_1
  124  2 157  1  1       0.50000000     100.00000000       0.10000000       0.25000000       0.12000000       3.50000000  hru_1
  125  2 158  1  1       0.50000000     100.00000000       0.10000000       0.25000000       0.12000000       3.50000000  hru_1
  126  2 159  1  1       0.50000000     100.00000000       0.10000000       0.25000000       0.12000000       3.50000000  hru_1
  127  2 160  1  1       0.50000000     100.00000000       0.10000000       0.25000000       0.12000000       3.50000000  hru_1
  128  1 161  1  1       0.50000000     100.00000000       0.10000000       0.25000000       0.12000000       3.50000000  hru_1
  129  1 162  1  1       0.50000000     100.00000000       0.10000000       0.25000000       0.12000000       3.50000000  hru_1
  130  2 164  1  1       0.50000000     100.00000000       0.10000000       0.25000000       0.12000000       3.50000000  hru_5
  131  2 165  1  1       0.50000000     100.00000000       0.10000000       0.25000000       0.12000000       3.50000000  hru_5
  132  2 166  1  1       0.50000000     100.00000000       0.10000000       0.25000000       0.12000000       3.50000000  hru_5
  133  2 167  1  1       0.50000000     100.00000000       0.10000000       0.25000000       0.12000000       3.50000000  hru_5
  134  2 168  1  1       0.50000000     100.00000000       0.10000000       0.25000000       0.12000000       3.50000000  hru_5
  135  2 169  1  1       0.50000000     100.00000000       0.10000000       0.25000000       0.12000000       3.50000000  hru_5
  136  3 170  1  1       0.50000000     100.00000000       0.10000000       0.25000000       0.12000000       3.50000000  hru_5
  137  2 171  1  1       0.50000000     100.00000000       0.10000000       0.25000000       0.12000000       3.50000000  hru_5
  138  2 172  1  1       0.50000000     100.00000000       0.10000000       0.25000000       0.12000000       3.50000000  hru_5
  139  2 173  1  1       0.50000000     100.00000000       0.10000000       0.25000000       0.12000000       3.50000000  hru_3
  140  2 174  1  1       0.50000000     100.00000000       0.10000000       0.25000000       0.12000000       3.50000000  hru_3
  141  2 175  1  1       0.50000000     100.00000000       0.10000000       0.25000000       0.12000000       3.50000000  hru_3
  142  2 176  1  1       0.50000000     100.00000000       0.10000000       0.25000000       0.12000000       3.50000000  hru_3
  143  2 177  1  1       0.50000000     100.00000000       0.10000000       0.25000000       0.12000000       3.50000000  hru_3
  144  2 178  1  1       0.50000000     100.00000000       0.10000000       0.25000000       0.12000000       3.50000000  hru_1
  145  2 179  1  1       0.50000000     100.00000000       0.10000000       0.25000000       0.12000000       3.50000000  hru_1
  146  2 180  1  1       0.50000000     100.00000000       0.10000000       0.25000000       0.12000000       3.50000000  hru_1
  147  2 181  1  1       0.50000000     100.00000000       0.10000000       0.25000000       0.12000000       3.50000000  hru_1
  148  2 182  1  1       0.50000000     100.00000000       0.10000000       0.25000000       0.12000000       3.50000000  hru_3
  149  2 183  1  1       0.50000000     100.00000000       0.10000000       0.25000000       0.12000000       3.50000000  hru_1
  150  2 184  1  1       0.50000000     100.00000000       0.10000000       0.25000000       0.12000000       3.50000000  hru_1
  151  2 185  1  1       0.50000000     100.00000000       0.10000000       0.25000000       0.12000000       3.50000000  hru_1
  152  2 186  1  1       0.50000000     100.00000000       0.10000000       0.25000000       0.12000000       3.50000000  hru_1
  153  2 187  1  1       0.50000000     100.00000000       0.10000000       0.25000000       0.12000000       3.50000000  hru_1
  154  2 188  1  1       0.50000000     100.00000000       0.10000000       0.25000000       0.12000000       3.50000000  hru_1
  155  2 189  1  1       0.50000000     100.00000000       0.10000000       0.25000000       0.12000000       3.50000000  hru_1
  156  2 190  1  1       0.50000000     100.00000000       0.10000000       0.25000000       0.12000000       3.50000000  hru_1
  157  2 191  1  1       0.50000000     100.00000000       0.10000000       0.25000000       0.12000000       3.50000000  hru_1
  158  2 192  1  1       0.50000000     100.00000000       0.10000000       0.25000000       0.12000000       3.50000000  hru_1
  159  2 193  1  1       0.50000000     100.00000000       0.10000000       0.25000000       0.12000000       3.50000000  hru_1
  160  2 194  1  1       0.50000000     100.00000000       0.10000000       0.25000000       0.12000000       3.50000000  hru_1
  161  2 195  1  1       0.50000000     100.00000000       0.10000000       0.25000000       0.12000000       3.50000000  hru_1
  162  2 196  1  1       0.50000000     100.00000000       0.10000000       0.25000000       0.12000000       3.50000000  hru_1
  163  2 197  1  1       0.50000000     100.00000000       0.10000000       0.25000000       0.12000000       3.50000000  hru_1
  164  2 198  1  1       0.50000000     100.00000000       0.10000000       0.25000000       0.12000000       3.50000000  hru_1
  165  3 199  1  1       0.50000000     100.00000000       0.10000000       0.25000000       0.12000000       3.50000000  hru_1
  166  2 200  1  1       0.50000000     100.00000000       0.10000000       0.25000000       0.12000000       3.50000000  hru_1
  167  2 201  1  1       0.50000000     100.00000000       0.10000000       0.25000000       0.12000000       3.50000000  hru_1
  168  3 202  1  1       0.50000000     100.00000000       0.10000000       0.25000000       0.12000000       3.50000000  hru_1
  169  2 203  1  1       0.50000000     100.00000000       0.10000000       0.25000000       0.12000000       3.50000000  hru_1
  170  2 204  1  1       0.50000000     100.00000000       0.10000000       0.25000000       0.12000000       3.50000000  hru_1
  171  2 205  1  1       0.50000000     100.00000000       0.10000000       0.25000000       0.12000000       3.50000000  hru_1
  172  2 206  1  1       0.50000000     100.00000000       0.10000000       0.25000000       0.12000000       3.50000000  hru_1
  173  2 207  1  1       0.50000000     100.00000000       0.10000000       0.25000000       0.12000000       3.50000000  hru_1
  174  2 208  1  1       0.50000000     100.00000000       0.10000000       0.25000000       0.12000000       3.50000000  hru_1
  175  2 209  1  1       0.50000000     100.00000000       0.10000000       0.25000000       0.12000000       3.50000000  hru_1
  176  2 210  1  1       0.50000000     100.00000000       0.10000000       0.25000000       0.12000000       3.50000000  hru_1
  177  2 211  1  1       0.50000000     100.00000000       0.10000000       0.25000000       0.12000000       3.50000000  hru_1
  178  2 212  1  1       0.50000000     100.00000000       0.10000000       0.25000000       0.12000000       3.50000000  hru_1
  179  2 213  1  1       0.50000000     100.00000000       0.10000000       0.25000000       0.12000000       3.50000000  hru_1
  180  2 214  1  1       0.50000000     100.00000000       0.10000000       0.25000000       0.12000000       3.50000000  hru_1
  181  3 215  1  1       0.50000000     100.00000000       0.10000000       0.25000000       0.12000000       3.50000000  hru_1
  182  3 216  1  1       0.50000000     100.00000000       0.10000000       0.25000000       0.12000000       3.50000000  hru_1
  183  2 217  1  1       0.50000000     100.00000000       0.10000000       0.25000000       0.12000000       3.50000000  hru_1
  184  3 218  1  1       0.50000000     100.00000000       0.10000000       0.25000000       0.12000000       3.50000000  hru_1
  185  2 219  1  1       0.50000000     100.00000000       0.10000000       0.25000000       0.12000000       3.50000000  hru_1
  186  2 220  1  1       0.50000000     100.00000000       0.10000000       0.25000000       0.12000000       3.50000000  hru_1
  187  2 221  1  1       0.50000000     100.00000000       0.10000000       0.25000000       0.12000000       3.50000000  hru_1
  188  2 222  1  1       0.50000000     100.00000000       0.10000000       0.25000000       0.12000000       3.50000000  hru_1
  189  2 223  1  1       0.50000000     100.00000000       0.10000000       0.25000000       0.12000000       3.50000000  hru_1
  190  2 224  1  1       0.50000000     100.00000000       0.10000000       0.25000000       0.12000000       3.50000000  hru_1
  191  2 225  1  1       0.50000000     100.00000000       0.10000000       0.25000000       0.12000000       3.50000000  hru_1
  192  1 226  1  1       0.50000000     100.00000000       0.10000000       0.25000000       0.12000000       3.50000000  hru_1
  193  2 227  1  1       0.50000000     100.00000000       0.10000000       0.25000000       0.12000000       3.50000000  hru_1
  194  2 228  1  1       0.50000000     100.00000000       0.10000000       0.25000000       0.12000000       3.50000000  hru_1
  195  2 229  1  1       0.50000000     100.00000000       0.10000000       0.25000000       0.12000000       3.50000000  hru_1
  196  2 230  1  1       0.50000000     100.00000000       0.10000000       0.25000000       0.12000000       3.50000000  hru_1
  197  2 231  1  1       0.50000000     100.00000000       0.10000000       0.25000000       0.12000000       3.50000000  hru_1
  198  2 232  1  1       0.50000000     100.00000000       0.10000000       0.25000000       0.12000000       3.50000000  hru_1
  199  2 233  1  1       0.50000000     100.00000000       0.10000000       0.25000000       0.12000000       3.50000000  hru_1
  200  2 234  1  1       0.50000000     100.00000000       0.10000000       0.25000000       0.12000000       3.50000000  hru_1
  201  1 235  1  1       0.50000000     100.00000000       0.10000000       0.25000000       0.12000000       3.50000000  hru_1
  202  2 236  1  1       0.50000000     100.00000000       0.10000000       0.25000000       0.12000000       3.50000000  hru_1
  203  1 237  1  1       0.50000000     100.00000000       0.10000000       0.25000000       0.12000000       3.50000000  hru_1
  204  2 238  1  1       0.50000000     100.00000000       0.10000000       0.25000000       0.12000000       3.50000000  hru_1
  205  2 239  1  1       0.50000000     100.00000000       0.10000000       0.25000000       0.12000000       3.50000000  hru_1
  206  2 240  1  1       0.50000000     100.00000000       0.10000000       0.25000000       0.12000000       3.50000000  hru_1
  207  2 241  1  1       0.50000000     100.00000000       0.10000000       0.25000000       0.12000000       3.50000000  hru_1
  208  2 242  1  1       0.50000000     100.00000000       0.10000000       0.25000000       0.12000000       3.50000000  hru_1
  209  2 243  1  1       0.50000000     100.00000000       0.10000000       0.25000000       0.12000000       3.50000000  hru_1
  210  2 244  1  1       0.50000000     100.00000000       0.10000000       0.25000000       0.12000000       3.50000000  hru_1
  211  2 245  1  1       0.50000000     100.00000000       0.10000000       0.25000000       0.12000000       3.50000000  hru_1
  212  2 246  1  1       0.50000000     100.00000000       0.10000000       0.25000000       0.12000000       3.50000000  hru_1
  213  2 247  1  1       0.50000000     100.00000000       0.10000000       0.25000000       0.12000000       3.50000000  hru_1
  214  2 248  1  1       0.50000000     100.00000000       0.10000000       0.25000000       0.12000000       3.50000000  hru_1
  215  3 249  1  1       0.50000000     100.00000000       0.10000000       0.25000000       0.12000000       3.50000000  hru_1
  216  2 250  1  1       0.50000000     100.00000000       0.10000000       0.25000000       0.12000000       3.50000000  hru_1
  217  3 251  1  1       0.50000000     100.00000000       0.10000000       0.25000000       0.12000000       3.50000000  hru_1
  218  2 252  1  1       0.50000000     100.00000000       0.10000000       0.25000000       0.12000000       3.50000000  hru_1
  219  3 253  1  1       0.50000000     100.00000000       0.10000000       0.25000000       0.12000000       3.50000000  hru_1
  220  3 254  1  1       0.50000000     100.00000000       0.10000000       0.25000000       0.12000000       3.50000000  hru_1
  221  2 255  1  1       0.50000000     100.00000000       0.10000000       0.25000000       0.12000000       3.50000000  hru_1
  222  2 256  1  1       0.50000000     100.00000000       0.10000000       0.25000000       0.12000000       3.50000000  hru_1
  223  3 257  1  1       0.50000000     100.00000000       0.10000000       0.25000000       0.12000000       3.50000000  hru_1
  224  2 258  1  1       0.50000000     100.00000000       0.10000000       0.25000000       0.12000000       3.50000000  hru_1
  225  2 259  1  1       0.50000000     100.00000000       0.10000000       0.25000000       0.12000000       3.50000000  hru_1
  226  2 260  1  1       0.50000000     100.00000000       0.10000000       0.25000000       0.12000000       3.50000000  hru_1
  227  2 261  1  1       0.50000000     100.00000000       0.10000000       0.25000000       0.12000000       3.50000000  hru_1
  228  2 262  1  1       0.50000000     100.00000000       0.10000000       0.25000000       0.12000000       3.50000000  hru_1
  229  2 263  1  1       0.50000000     100.00000000       0.10000000       0.25000000       0.12000000       3.50000000  hru_1
  230  2 264  1  1       0.50000000     100.00000000       0.10000000       0.25000000       0.12000000       3.50000000  hru_1
  231  2 265  1  1       0.50000000     100.00000000       0.10000000       0.25000000       0.12000000       3.50000000  hru_1
  232  1 266  1  1       0.50000000     100.00000000       0.10000000       0.25000000       0.12000000       3.50000000  hru_1
  233  2 267  1  1       0.50000000     100.00000000       0.10000000       0.25000000       0.12000000       3.50000000  hru_1
  234  1 268  1  1       0.50000000     100.00000000       0.10000000       0.25000000       0.12000000       3.50000000  hru_1