BEGIN options
END options

BEGIN dimensions
  NUMGNC  5475
  NUMALPHAJ  1
END dimensions

BEGIN gncdata
  2 61  2 84  2 62       0.25000000
  3 61  3 84  3 62       0.25000000
  4 61  4 84  4 62       0.25000000
  5 61  5 84  5 62       0.25000000
  6 61  6 84  6 62       0.25000000
  7 61  7 84  7 62       0.25000000
  2 61  2 83  2 60       0.25000000
  3 61  3 83  3 60       0.25000000
  4 61  4 83  4 60       0.25000000
  5 61  5 83  5 60       0.25000000
  6 61  6 83  6 60       0.25000000
  7 61  7 83  7 60       0.25000000
  2 62  2 88  2 63       0.25000000
  3 62  3 88  3 63       0.25000000
  4 62  4 88  4 63       0.25000000
  5 62  5 88  5 63       0.25000000
  6 62  6 88  6 63       0.25000000
  7 62  7 88  7 63       0.25000000
  2 62  2 87  2 61       0.25000000
  3 62  3 87  3 61       0.25000000
  4 62  4 87  4 61       0.25000000
  5 62  5 87  5 61       0.25000000
  6 62  6 87  6 61       0.25000000
  7 62  7 87  7 61       0.25000000
  2 82  2 83  2 60       0.25000000
  3 82  3 83  3 60       0.25000000
  4 82  4 83  4 60       0.25000000
  5 82  5 83  5 60       0.25000000
  6 82  6 83  6 60       0.25000000
  7 82  7 83  7 60       0.25000000
  2 82  2 112  2 118       0.25000000
  3 82  3 112  3 118       0.25000000
  4 82  4 112  4 118       0.25000000
  5 82  5 112  5 118       0.25000000
  6 82  6 112  6 118       0.25000000
  7 82  7 112  7 118       0.25000000
  2 82  2 85  2 118       0.25000000
  3 82  3 85  3 118       0.25000000
  4 82  4 85  4 118       0.25000000
  5 82  5 85  5 118       0.25000000
  6 82  6 85  6 118       0.25000000
  7 82  7 85  7 118       0.25000000
  2 82  2 111  2 81       0.25000000
  3 82  3 111  3 81       0.25000000
  4 82  4 111  4 81       0.25000000
  5 82  5 111  5 81       0.25000000
  6 82  6 111  6 81       0.25000000
  7 82  7 111  7 81       0.25000000
  2 86  2 120  2 89       0.25000000
  3 86  3 120  3 89       0.25000000
  4 86  4 120  4 89       0.25000000
  5 86  5 120  5 89       0.25000000
  6 86  6 120  6 89       0.25000000
  7 86  7 120  7 89       0.25000000
  2 86  2 119  2 85       0.25000000
  3 86  3 119  3 85       0.25000000
  4 86  4 119  4 85       0.25000000
  5 86  5 119  5 85       0.25000000
  6 86  6 119  6 85       0.25000000
  7 86  7 119  7 85       0.25000000
  2 89  2 132  2 90       0.25000000
  3 89  3 132  3 90       0.25000000
  4 89  4 132  4 90       0.25000000
  5 89  5 132  5 90       0.25000000
  6 89  6 132  6 90       0.25000000
  7 89  7 132  7 90       0.25000000
  2 89  2 131  2 86       0.25000000
  3 89  3 131  3 86       0.25000000
  4 89  4 131  4 86       0.25000000
  5 89  5 131  5 86       0.25000000
  6 89  6 131  6 86       0.25000000
  7 89  7 131  7 86       0.25000000
  2 91  2 88  2 63       0.25000000
  3 91  3 88  3 63       0.25000000
  4 91  4 88  4 63       0.25000000
  5 91  5 88  5 63       0.25000000
  6 91  6 88  6 63       0.25000000
  7 91  7 88  7 63       0.25000000
  2 91  2 145  2 92       0.25000000
  3 91  3 145  3 92       0.25000000
  4 91  4 145  4 92       0.25000000
  5 91  5 145  5 92       0.25000000
  6 91  6 145  6 92       0.25000000
  7 91  7 145  7 92       0.25000000
  2 91  2 144  2 135       0.25000000
  3 91  3 144  3 135       0.25000000
  4 91  4 144  4 135       0.25000000
  5 91  5 144  5 135       0.25000000
  6 91  6 144  6 135       0.25000000
  7 91  7 144  7 135       0.25000000
  2 91  2 90  2 135       0.25000000
  3 91  3 90  3 135       0.25000000
  4 91  4 90  4 135       0.25000000
  5 91  5 90  5 135       0.25000000
  6 91  6 90  6 135       0.25000000
  7 91  7 90  7 135       0.25000000
  2 92  2 155  2 93       0.25000000
  3 92  3 155  3 93       0.25000000
  4 92  4 155  4 93       0.25000000
  5 92  5 155  5 93       0.25000000
  6 92  6 155  6 93       0.25000000
  7 92  7 155  7 93       0.25000000
  2 92  2 154  2 91       0.25000000
  3 92  3 154  3 91       0.25000000
  4 92  4 154  4 91       0.25000000
  5 92  5 154  5 91       0.25000000
  6 92  6 154  6 91       0.25000000
  7 92  7 154  7 91       0.25000000
  2 109  2 175  2 110       0.25000000
  3 109  3 175  3 110       0.25000000
  4 109  4 175  4 110       0.25000000
  5 109  5 175  5 110       0.25000000
  6 109  6 175  6 110       0.25000000
  7 109  7 175  7 110       0.25000000
  2 109  2 174  2 108       0.25000000
  3 109  3 174  3 108       0.25000000
  4 109  4 174  4 108       0.25000000
  5 109  5 174  5 108       0.25000000
  6 109  6 174  6 108       0.25000000
  7 109  7 174  7 108       0.25000000
  2 110  2 111  2 81       0.25000000
  3 110  3 111  3 81       0.25000000
  4 110  4 111  4 81       0.25000000
  5 110  5 111  5 81       0.25000000
  6 110  6 111  6 81       0.25000000
  7 110  7 111  7 81       0.25000000
  2 110  2 179  2 188       0.25000000
  3 110  3 179  3 188       0.25000000
  4 110  4 179  4 188       0.25000000
  5 110  5 179  5 188       0.25000000
  6 110  6 179  6 188       0.25000000
  7 110  7 179  7 188       0.25000000
  1 110  1 113  1 110       0.25000000
  2 110  2 113  2 188       0.25000000
  3 110  3 113  3 188       0.25000000
  4 110  4 113  4 188       0.25000000
  5 110  5 113  5 188       0.25000000
  6 110  6 113  6 188       0.25000000
  7 110  7 113  7 188       0.25000000
  2 110  2 178  2 109       0.25000000
  3 110  3 178  3 109       0.25000000
  4 110  4 178  4 109       0.25000000
  5 110  5 178  5 109       0.25000000
  6 110  6 178  6 109       0.25000000
  7 110  7 178  7 109       0.25000000
  2 112  2 115  2 118       0.25000000
  3 112  3 115  3 118       0.25000000
  4 112  4 115  4 118       0.25000000
  5 112  5 115  5 118       0.25000000
  6 112  6 115  6 118       0.25000000
  7 112  7 115  7 118       0.25000000
  2 112  2 114  2 111       0.25000000
  3 112  3 114  3 111       0.25000000
  4 112  4 114  4 111       0.25000000
  5 112  5 114  5 111       0.25000000
  6 112  6 114  6 111       0.25000000
  7 112  7 114  7 111       0.25000000
  2 113  2 114  2 111       0.25000000
  3 113  3 114  3 111       0.25000000
  4 113  4 114  4 111       0.25000000
  5 113  5 114  5 111       0.25000000
  6 113  6 114  6 111       0.25000000
  7 113  7 114  7 111       0.25000000
  2 113  2 189  2 192       0.25000000
  3 113  3 189  3 192       0.25000000
  4 113  4 189  4 192       0.25000000
  5 113  5 189  5 192       0.25000000
  6 113  6 189  6 192       0.25000000
  7 113  7 189  7 192       0.25000000
  2 113  2 116  2 192       0.25000000
  3 113  3 116  3 192       0.25000000
  4 113  4 116  4 192       0.25000000
  5 113  5 116  5 192       0.25000000
  6 113  6 116  6 192       0.25000000
  7 113  7 116  7 192       0.25000000
  2 113  2 188  2 179       0.25000000
  3 113  3 188  3 179       0.25000000
  4 113  4 188  4 179       0.25000000
  5 113  5 188  5 179       0.25000000
  6 113  6 188  6 179       0.25000000
  7 113  7 188  7 179       0.25000000
  2 118  2 119  2 85       0.25000000
  3 118  3 119  3 85       0.25000000
  4 118  4 119  4 85       0.25000000
  5 118  5 119  5 85       0.25000000
  6 118  6 119  6 85       0.25000000
  7 118  7 119  7 85       0.25000000
  2 118  2 124  2 127       0.25000000
  3 118  3 124  3 127       0.25000000
  4 118  4 124  4 127       0.25000000
  5 118  5 124  5 127       0.25000000
  6 118  6 124  6 127       0.25000000
  7 118  7 124  7 127       0.25000000
  2 118  2 121  2 127       0.25000000
  3 118  3 121  3 127       0.25000000
  4 118  4 121  4 127       0.25000000
  5 118  5 121  5 127       0.25000000
  6 118  6 121  6 127       0.25000000
  7 118  7 121  7 127       0.25000000
  2 118  2 123  2 112       0.25000000
  3 118  3 123  3 112       0.25000000
  4 118  4 123  4 112       0.25000000
  5 118  5 123  5 112       0.25000000
  6 118  6 123  6 112       0.25000000
  7 118  7 123  7 112       0.25000000
  2 135  2 132  2 90       0.25000000
  3 135  3 132  3 90       0.25000000
  4 135  4 132  4 90       0.25000000
  5 135  5 132  5 90       0.25000000
  6 135  6 132  6 90       0.25000000
  7 135  7 132  7 90       0.25000000
  2 135  2 141  2 144       0.25000000
  3 135  3 141  3 144       0.25000000
  4 135  4 141  4 144       0.25000000
  5 135  5 141  5 144       0.25000000
  6 135  6 141  6 144       0.25000000
  7 135  7 141  7 144       0.25000000
  2 135  2 140  2 137       0.25000000
  3 135  3 140  3 137       0.25000000
  4 135  4 140  4 137       0.25000000
  5 135  5 140  5 137       0.25000000
  6 135  6 140  6 137       0.25000000
  7 135  7 140  7 137       0.25000000
  2 135  2 134  2 137       0.25000000
  3 135  3 134  3 137       0.25000000
  4 135  4 134  4 137       0.25000000
  5 135  5 134  5 137       0.25000000
  6 135  6 134  6 137       0.25000000
  7 135  7 134  7 137       0.25000000
  2 144  2 147  2 145       0.25000000
  3 144  3 147  3 145       0.25000000
  4 144  4 147  4 145       0.25000000
  5 144  5 147  5 145       0.25000000
  6 144  6 147  6 145       0.25000000
  7 144  7 147  7 145       0.25000000
  2 144  2 146  2 135       0.25000000
  3 144  3 146  3 135       0.25000000
  4 144  4 146  4 135       0.25000000
  5 144  5 146  5 135       0.25000000
  6 144  6 146  6 135       0.25000000
  7 144  7 146  7 135       0.25000000
  2 145  2 151  2 154       0.25000000
  3 145  3 151  3 154       0.25000000
  4 145  4 151  4 154       0.25000000
  5 145  5 151  5 154       0.25000000
  6 145  6 151  6 154       0.25000000
  7 145  7 151  7 154       0.25000000
  2 145  2 150  2 144       0.25000000
  3 145  3 150  3 144       0.25000000
  4 145  4 150  4 144       0.25000000
  5 145  5 150  5 144       0.25000000
  6 145  6 150  6 144       0.25000000
  7 145  7 150  7 144       0.25000000
  2 156  2 151  2 154       0.25000000
  3 156  3 151  3 154       0.25000000
  4 156  4 151  4 154       0.25000000
  5 156  5 151  5 154       0.25000000
  6 156  6 151  6 154       0.25000000
  7 156  7 151  7 154       0.25000000
  3 156  3 253  3 157       0.25000000
  4 156  4 253  4 157       0.25000000
  5 156  5 253  5 157       0.25000000
  6 156  6 253  6 157       0.25000000
  7 156  7 253  7 157       0.25000000
  2 156  2 252  2 241       0.25000000
  3 156  3 252  3 241       0.25000000
  4 156  4 252  4 241       0.25000000
  5 156  5 252  5 241       0.25000000
  6 156  6 252  6 241       0.25000000
  7 156  7 252  7 241       0.25000000
  2 156  2 153  2 241       0.25000000
  3 156  3 153  3 241       0.25000000
  4 156  4 153  4 241       0.25000000
  5 156  5 153  5 241       0.25000000
  6 156  6 153  6 241       0.25000000
  7 156  7 153  7 241       0.25000000
  2 158  2 155  2 93       0.25000000
  3 158  3 155  3 93       0.25000000
  4 158  4 155  4 93       0.25000000
  5 158  5 155  5 93       0.25000000
  6 158  6 155  6 93       0.25000000
  7 158  7 155  7 93       0.25000000
  2 158  2 266  2 159       0.25000000
  3 158  3 266  3 159       0.25000000
  4 158  4 266  4 159       0.25000000
  5 158  5 266  5 159       0.25000000
  6 158  6 266  6 159       0.25000000
  7 158  7 266  7 159       0.25000000
  2 158  2 265  2 256       0.25000000
  3 158  3 265  3 256       0.25000000
  4 158  4 265  4 256       0.25000000
  5 158  5 265  5 256       0.25000000
  6 158  6 265  6 256       0.25000000
  7 158  7 265  7 256       0.25000000
  2 158  2 157  2 256       0.25000000
  3 158  3 157  3 256       0.25000000
  4 158  4 157  4 256       0.25000000
  5 158  5 157  5 256       0.25000000
  6 158  6 157  6 256       0.25000000
  7 158  7 157  7 256       0.25000000
  2 173  2 174  2 108       0.25000000
  3 173  3 174  3 108       0.25000000
  4 173  4 174  4 108       0.25000000
  5 173  5 174  5 108       0.25000000
  6 173  6 174  6 108       0.25000000
  7 173  7 174  7 108       0.25000000
  3 173  3 284  3 287       0.25000000
  4 173  4 284  4 287       0.25000000
  5 173  5 284  5 287       0.25000000
  6 173  6 284  6 287       0.25000000
  7 173  7 284  7 287       0.25000000
  2 173  2 176  2 287       0.25000000
  3 173  3 176  3 287       0.25000000
  4 173  4 176  4 287       0.25000000
  5 173  5 176  5 287       0.25000000
  6 173  6 176  6 287       0.25000000
  7 173  7 176  7 287       0.25000000
  2 173  2 283  2 172       0.25000000
  3 173  3 283  3 172       0.25000000
  4 173  4 283  4 172       0.25000000
  5 173  5 283  5 172       0.25000000
  6 173  6 283  6 172       0.25000000
  7 173  7 283  7 172       0.25000000
  2 177  2 180  2 175       0.25000000
  3 177  3 180  3 175       0.25000000
  4 177  4 180  4 175       0.25000000
  5 177  5 180  5 175       0.25000000
  6 177  6 180  6 175       0.25000000
  7 177  7 180  7 175       0.25000000
  2 177  2 289  2 300       0.25000000
  3 177  3 289  3 300       0.25000000
  4 177  4 289  4 300       0.25000000
  5 177  5 289  5 300       0.25000000
  6 177  6 289  6 300       0.25000000
  7 177  7 289  7 300       0.25000000
  2 177  2 182  2 300       0.25000000
  3 177  3 182  3 300       0.25000000
  4 177  4 182  4 300       0.25000000
  5 177  5 182  5 300       0.25000000
  6 177  6 182  6 300       0.25000000
  7 177  7 182  7 300       0.25000000
  2 177  2 288  2 176       0.25000000
  3 177  3 288  3 176       0.25000000
  4 177  4 288  4 176       0.25000000
  5 177  5 288  5 176       0.25000000
  6 177  6 288  6 176       0.25000000
  7 177  7 288  7 176       0.25000000
  2 178  2 181  2 179       0.25000000
  3 178  3 181  3 179       0.25000000
  4 178  4 181  4 179       0.25000000
  5 178  5 181  5 179       0.25000000
  6 178  6 181  6 179       0.25000000
  7 178  7 181  7 179       0.25000000
  2 178  2 180  2 175       0.25000000
  3 178  3 180  3 175       0.25000000
  4 178  4 180  4 175       0.25000000
  5 178  5 180  5 175       0.25000000
  6 178  6 180  6 175       0.25000000
  7 178  7 180  7 175       0.25000000
  2 179  2 188  2 113       0.25000000
  3 179  3 188  3 113       0.25000000
  4 179  4 188  4 113       0.25000000
  5 179  5 188  5 113       0.25000000
  6 179  6 188  6 113       0.25000000
  7 179  7 188  7 113       0.25000000
  2 179  2 185  2 196       0.25000000
  3 179  3 185  3 196       0.25000000
  4 179  4 185  4 196       0.25000000
  5 179  5 185  5 196       0.25000000
  6 179  6 185  6 196       0.25000000
  7 179  7 185  7 196       0.25000000
  2 179  2 190  2 196       0.25000000
  3 179  3 190  3 196       0.25000000
  4 179  4 190  4 196       0.25000000
  5 179  5 190  5 196       0.25000000
  6 179  6 190  6 196       0.25000000
  7 179  7 190  7 196       0.25000000
  2 179  2 184  2 178       0.25000000
  3 179  3 184  3 178       0.25000000
  4 179  4 184  4 178       0.25000000
  5 179  5 184  5 178       0.25000000
  6 179  6 184  6 178       0.25000000
  7 179  7 184  7 178       0.25000000
  3 256  3 253  3 157       0.25000000
  4 256  4 253  4 157       0.25000000
  5 256  5 253  5 157       0.25000000
  6 256  6 253  6 157       0.25000000
  7 256  7 253  7 157       0.25000000
  2 256  2 262  2 265       0.25000000
  3 256  3 262  3 265       0.25000000
  4 256  4 262  4 265       0.25000000
  5 256  5 262  5 265       0.25000000
  6 256  6 262  6 265       0.25000000
  7 256  7 262  7 265       0.25000000
  2 256  2 261  2 258       0.25000000
  3 256  3 261  3 258       0.25000000
  4 256  4 261  4 258       0.25000000
  5 256  5 261  5 258       0.25000000
  6 256  6 261  6 258       0.25000000
  7 256  7 261  7 258       0.25000000
  2 256  2 255  2 258       0.25000000
  3 256  3 255  3 258       0.25000000
  4 256  4 255  4 258       0.25000000
  5 256  5 255  5 258       0.25000000
  6 256  6 255  6 258       0.25000000
  7 256  7 255  7 258       0.25000000
  2 267  2 262  2 265       0.25000000
  3 267  3 262  3 265       0.25000000
  4 267  4 262  4 265       0.25000000
  5 267  5 262  5 265       0.25000000
  6 267  6 262  6 265       0.25000000
  7 267  7 262  7 265       0.25000000
  2 267  2 397  2 268       0.25000000
  3 267  3 397  3 268       0.25000000
  4 267  4 397  4 268       0.25000000
  5 267  5 397  5 268       0.25000000
  6 267  6 397  6 268       0.25000000
  7 267  7 397  7 268       0.25000000
  2 267  2 396  2 385       0.25000000
  3 267  3 396  3 385       0.25000000
  4 267  4 396  4 385       0.25000000
  5 267  5 396  5 385       0.25000000
  6 267  6 396  6 385       0.25000000
  7 267  7 396  7 385       0.25000000
  2 267  2 264  2 385       0.25000000
  3 267  3 264  3 385       0.25000000
  4 267  4 264  4 385       0.25000000
  5 267  5 264  5 385       0.25000000
  6 267  6 264  6 385       0.25000000
  7 267  7 264  7 385       0.25000000
  2 269  2 266  2 159       0.25000000
  3 269  3 266  3 159       0.25000000
  4 269  4 266  4 159       0.25000000
  5 269  5 266  5 159       0.25000000
  6 269  6 266  6 159       0.25000000
  7 269  7 266  7 159       0.25000000
  2 269  2 410  2 270       0.25000000
  3 269  3 410  3 270       0.25000000
  4 269  4 410  4 270       0.25000000
  5 269  5 410  5 270       0.25000000
  6 269  6 410  6 270       0.25000000
  7 269  7 410  7 270       0.25000000
  2 269  2 409  2 400       0.25000000
  3 269  3 409  3 400       0.25000000
  4 269  4 409  4 400       0.25000000
  5 269  5 409  5 400       0.25000000
  6 269  6 409  6 400       0.25000000
  7 269  7 409  7 400       0.25000000
  2 269  2 268  2 400       0.25000000
  3 269  3 268  3 400       0.25000000
  4 269  4 268  4 400       0.25000000
  5 269  5 268  5 400       0.25000000
  6 269  6 268  6 400       0.25000000
  7 269  7 268  7 400       0.25000000
  2 273  2 418  2 274       0.25000000
  3 273  3 418  3 274       0.25000000
  4 273  4 418  4 274       0.25000000
  5 273  5 418  5 274       0.25000000
  6 273  6 418  6 274       0.25000000
  7 273  7 418  7 274       0.25000000
  2 273  2 417  2 416       0.25000000
  3 273  3 417  3 416       0.25000000
  4 273  4 417  4 416       0.25000000
  5 273  5 417  5 416       0.25000000
  6 273  6 417  6 416       0.25000000
  7 273  7 417  7 416       0.25000000
  2 274  2 422  2 275       0.25000000
  3 274  3 422  3 275       0.25000000
  4 274  4 422  4 275       0.25000000
  5 274  5 422  5 275       0.25000000
  6 274  6 422  6 275       0.25000000
  7 274  7 422  7 275       0.25000000
  2 274  2 421  2 273       0.25000000
  3 274  3 421  3 273       0.25000000
  4 274  4 421  4 273       0.25000000
  5 274  5 421  5 273       0.25000000
  6 274  6 421  6 273       0.25000000
  7 274  7 421  7 273       0.25000000
  2 275  2 426  2 276       0.25000000
  3 275  3 426  3 276       0.25000000
  4 275  4 426  4 276       0.25000000
  5 275  5 426  5 276       0.25000000
  6 275  6 426  6 276       0.25000000
  7 275  7 426  7 276       0.25000000
  2 275  2 425  2 274       0.25000000
  3 275  3 425  3 274       0.25000000
  4 275  4 425  4 274       0.25000000
  5 275  5 425  5 274       0.25000000
  6 275  6 425  6 274       0.25000000
  7 275  7 425  7 274       0.25000000
  2 276  2 430  2 277       0.25000000
  3 276  3 430  3 277       0.25000000
  4 276  4 430  4 277       0.25000000
  5 276  5 430  5 277       0.25000000
  6 276  6 430  6 277       0.25000000
  7 276  7 430  7 277       0.25000000
  2 276  2 429  2 275       0.25000000
  3 276  3 429  3 275       0.25000000
  4 276  4 429  4 275       0.25000000
  5 276  5 429  5 275       0.25000000
  6 276  6 429  6 275       0.25000000
  7 276  7 429  7 275       0.25000000
  2 277  2 434  2 278       0.25000000
  3 277  3 434  3 278       0.25000000
  4 277  4 434  4 278       0.25000000
  5 277  5 434  5 278       0.25000000
  6 277  6 434  6 278       0.25000000
  7 277  7 434  7 278       0.25000000
  2 277  2 433  2 276       0.25000000
  3 277  3 433  3 276       0.25000000
  4 277  4 433  4 276       0.25000000
  5 277  5 433  5 276       0.25000000
  6 277  6 433  6 276       0.25000000
  7 277  7 433  7 276       0.25000000
  2 278  2 438  2 278       0.25000000
  3 278  3 438  3 279       0.25000000
  4 278  4 438  4 279       0.25000000
  5 278  5 438  5 279       0.25000000
  6 278  6 438  6 279       0.25000000
  7 278  7 438  7 279       0.25000000
  2 278  2 437  2 277       0.25000000
  3 278  3 437  3 277       0.25000000
  4 278  4 437  4 277       0.25000000
  5 278  5 437  5 277       0.25000000
  6 278  6 437  6 277       0.25000000
  7 278  7 437  7 277       0.25000000
  3 279  3 442  3 280       0.25000000
  4 279  4 442  4 280       0.25000000
  5 279  5 442  5 280       0.25000000
  6 279  6 442  6 280       0.25000000
  7 279  7 442  7 280       0.25000000
  3 279  3 441  3 278       0.25000000
  4 279  4 441  4 278       0.25000000
  5 279  5 441  5 278       0.25000000
  6 279  6 441  6 278       0.25000000
  7 279  7 441  7 278       0.25000000
  3 280  3 446  3 281       0.25000000
  4 280  4 446  4 281       0.25000000
  5 280  5 446  5 281       0.25000000
  6 280  6 446  6 281       0.25000000
  7 280  7 446  7 281       0.25000000
  3 280  3 445  3 279       0.25000000
  4 280  4 445  4 279       0.25000000
  5 280  5 445  5 279       0.25000000
  6 280  6 445  6 279       0.25000000
  7 280  7 445  7 279       0.25000000
  3 281  3 450  3 282       0.25000000
  4 281  4 450  4 282       0.25000000
  5 281  5 450  5 282       0.25000000
  6 281  6 450  6 282       0.25000000
  7 281  7 450  7 282       0.25000000
  3 281  3 449  3 280       0.25000000
  4 281  4 449  4 280       0.25000000
  5 281  5 449  5 280       0.25000000
  6 281  6 449  6 280       0.25000000
  7 281  7 449  7 280       0.25000000
  2 282  2 283  2 172       0.25000000
  3 282  3 283  3 172       0.25000000
  4 282  4 283  4 172       0.25000000
  5 282  5 283  5 172       0.25000000
  6 282  6 283  6 172       0.25000000
  7 282  7 283  7 172       0.25000000
  2 282  2 454  2 282       0.25000000
  3 282  3 454  3 460       0.25000000
  4 282  4 454  4 460       0.25000000
  5 282  5 454  5 460       0.25000000
  6 282  6 454  6 460       0.25000000
  7 282  7 454  7 460       0.25000000
  2 282  2 285  2 282       0.25000000
  3 282  3 285  3 460       0.25000000
  4 282  4 285  4 460       0.25000000
  5 282  5 285  5 460       0.25000000
  6 282  6 285  6 460       0.25000000
  7 282  7 285  7 460       0.25000000
  3 282  3 453  3 281       0.25000000
  4 282  4 453  4 281       0.25000000
  5 282  5 453  5 281       0.25000000
  6 282  6 453  6 281       0.25000000
  7 282  7 453  7 281       0.25000000
  2 286  2 292  2 287       0.25000000
  3 286  3 292  3 284       0.25000000
  4 286  4 292  4 284       0.25000000
  5 286  5 292  5 284       0.25000000
  6 286  6 292  6 284       0.25000000
  7 286  7 292  7 284       0.25000000
  3 286  3 462  3 473       0.25000000
  4 286  4 462  4 473       0.25000000
  5 286  5 462  5 473       0.25000000
  6 286  6 462  6 473       0.25000000
  7 286  7 462  7 473       0.25000000
  2 286  2 294  2 286       0.25000000
  3 286  3 294  3 473       0.25000000
  4 286  4 294  4 473       0.25000000
  5 286  5 294  5 473       0.25000000
  6 286  6 294  6 473       0.25000000
  7 286  7 294  7 473       0.25000000
  2 286  2 461  2 285       0.25000000
  3 286  3 461  3 285       0.25000000
  4 286  4 461  4 285       0.25000000
  5 286  5 461  5 285       0.25000000
  6 286  6 461  6 285       0.25000000
  7 286  7 461  7 285       0.25000000
  2 287  2 288  2 176       0.25000000
  3 287  3 288  3 176       0.25000000
  4 287  4 288  4 176       0.25000000
  5 287  5 288  5 176       0.25000000
  6 287  6 288  6 176       0.25000000
  7 287  7 288  7 176       0.25000000
  2 287  2 293  2 296       0.25000000
  3 287  3 293  3 296       0.25000000
  4 287  4 293  4 296       0.25000000
  5 287  5 293  5 296       0.25000000
  6 287  6 293  6 296       0.25000000
  7 287  7 293  7 296       0.25000000
  2 287  2 290  2 296       0.25000000
  3 287  3 290  3 296       0.25000000
  4 287  4 290  4 296       0.25000000
  5 287  5 290  5 296       0.25000000
  6 287  6 290  6 296       0.25000000
  7 287  7 290  7 296       0.25000000
  2 287  2 292  2 286       0.25000000
  3 287  3 292  3 284       0.25000000
  4 287  4 292  4 284       0.25000000
  5 287  5 292  5 284       0.25000000
  6 287  6 292  6 284       0.25000000
  7 287  7 292  7 284       0.25000000
  2 400  2 397  2 268       0.25000000
  3 400  3 397  3 268       0.25000000
  4 400  4 397  4 268       0.25000000
  5 400  5 397  5 268       0.25000000
  6 400  6 397  6 268       0.25000000
  7 400  7 397  7 268       0.25000000
  2 400  2 406  2 409       0.25000000
  3 400  3 406  3 409       0.25000000
  4 400  4 406  4 409       0.25000000
  5 400  5 406  5 409       0.25000000
  6 400  6 406  6 409       0.25000000
  7 400  7 406  7 409       0.25000000
  2 400  2 405  2 402       0.25000000
  3 400  3 405  3 402       0.25000000
  4 400  4 405  4 402       0.25000000
  5 400  5 405  5 402       0.25000000
  6 400  6 405  6 402       0.25000000
  7 400  7 405  7 402       0.25000000
  2 400  2 399  2 402       0.25000000
  3 400  3 399  3 402       0.25000000
  4 400  4 399  4 402       0.25000000
  5 400  5 399  5 402       0.25000000
  6 400  6 399  6 402       0.25000000
  7 400  7 399  7 402       0.25000000
  2 411  2 406  2 409       0.25000000
  3 411  3 406  3 409       0.25000000
  4 411  4 406  4 409       0.25000000
  5 411  5 406  5 409       0.25000000
  6 411  6 406  6 409       0.25000000
  7 411  7 406  7 409       0.25000000
  2 411  2 408  2 601       0.25000000
  3 411  3 408  3 601       0.25000000
  4 411  4 408  4 601       0.25000000
  5 411  5 408  5 601       0.25000000
  6 411  6 408  6 601       0.25000000
  7 411  7 408  7 601       0.25000000
  2 413  2 410  2 270       0.25000000
  3 413  3 410  3 270       0.25000000
  4 413  4 410  4 270       0.25000000
  5 413  5 410  5 270       0.25000000
  6 413  6 410  6 270       0.25000000
  7 413  7 410  7 270       0.25000000
  2 413  2 412  2 605       0.25000000
  3 413  3 412  3 605       0.25000000
  4 413  4 412  4 605       0.25000000
  5 413  5 412  5 605       0.25000000
  6 413  6 412  6 605       0.25000000
  7 413  7 412  7 605       0.25000000
  2 415  2 609  2 416       0.25000000
  3 415  3 609  3 416       0.25000000
  4 415  4 609  4 416       0.25000000
  5 415  5 609  5 416       0.25000000
  6 415  6 609  6 416       0.25000000
  7 415  7 609  7 416       0.25000000
  2 415  2 608  2 607       0.25000000
  3 415  3 608  3 607       0.25000000
  4 415  4 608  4 607       0.25000000
  5 415  5 608  5 607       0.25000000
  6 415  6 608  6 607       0.25000000
  7 415  7 608  7 607       0.25000000
  2 416  2 417  2 273       0.25000000
  3 416  3 417  3 273       0.25000000
  4 416  4 417  4 273       0.25000000
  5 416  5 417  5 273       0.25000000
  6 416  6 417  6 273       0.25000000
  7 416  7 417  7 273       0.25000000
  2 416  2 613  2 622       0.25000000
  3 416  3 613  3 622       0.25000000
  4 416  4 613  4 622       0.25000000
  5 416  5 613  5 622       0.25000000
  6 416  6 613  6 622       0.25000000
  7 416  7 613  7 622       0.25000000
  2 416  2 419  2 622       0.25000000
  3 416  3 419  3 622       0.25000000
  4 416  4 419  4 622       0.25000000
  5 416  5 419  5 622       0.25000000
  6 416  6 419  6 622       0.25000000
  7 416  7 419  7 622       0.25000000
  2 416  2 612  2 415       0.25000000
  3 416  3 612  3 415       0.25000000
  4 416  4 612  4 415       0.25000000
  5 416  5 612  5 415       0.25000000
  6 416  6 612  6 415       0.25000000
  7 416  7 612  7 415       0.25000000
  3 419  3 623  3 420       0.25000000
  4 419  4 623  4 420       0.25000000
  5 419  5 623  5 420       0.25000000
  6 419  6 623  6 420       0.25000000
  7 419  7 623  7 420       0.25000000
  2 419  2 622  2 613       0.25000000
  3 419  3 622  3 613       0.25000000
  4 419  4 622  4 613       0.25000000
  5 419  5 622  5 613       0.25000000
  6 419  6 622  6 613       0.25000000
  7 419  7 622  7 613       0.25000000
  3 420  3 627  3 423       0.25000000
  4 420  4 627  4 423       0.25000000
  5 420  5 627  5 423       0.25000000
  6 420  6 627  6 423       0.25000000
  7 420  7 627  7 423       0.25000000
  3 420  3 626  3 419       0.25000000
  4 420  4 626  4 419       0.25000000
  5 420  5 626  5 419       0.25000000
  6 420  6 626  6 419       0.25000000
  7 420  7 626  7 419       0.25000000
  3 423  3 639  3 424       0.25000000
  4 423  4 639  4 424       0.25000000
  5 423  5 639  5 424       0.25000000
  6 423  6 639  6 424       0.25000000
  7 423  7 639  7 424       0.25000000
  3 423  3 638  3 420       0.25000000
  4 423  4 638  4 420       0.25000000
  5 423  5 638  5 420       0.25000000
  6 423  6 638  6 420       0.25000000
  7 423  7 638  7 420       0.25000000
  2 424  2 643  2 427       0.25000000
  3 424  3 643  3 427       0.25000000
  4 424  4 643  4 427       0.25000000
  5 424  5 643  5 427       0.25000000
  6 424  6 643  6 427       0.25000000
  7 424  7 643  7 427       0.25000000
  2 424  2 642  2 423       0.25000000
  3 424  3 642  3 423       0.25000000
  4 424  4 642  4 423       0.25000000
  5 424  5 642  5 423       0.25000000
  6 424  6 642  6 423       0.25000000
  7 424  7 642  7 423       0.25000000
  2 427  2 655  2 428       0.25000000
  3 427  3 655  3 428       0.25000000
  4 427  4 655  4 428       0.25000000
  5 427  5 655  5 428       0.25000000
  6 427  6 655  6 428       0.25000000
  7 427  7 655  7 428       0.25000000
  3 427  3 654  3 424       0.25000000
  4 427  4 654  4 424       0.25000000
  5 427  5 654  5 424       0.25000000
  6 427  6 654  6 424       0.25000000
  7 427  7 654  7 424       0.25000000
  2 428  2 659  2 431       0.25000000
  3 428  3 659  3 431       0.25000000
  4 428  4 659  4 431       0.25000000
  5 428  5 659  5 431       0.25000000
  6 428  6 659  6 431       0.25000000
  7 428  7 659  7 431       0.25000000
  2 428  2 658  2 427       0.25000000
  3 428  3 658  3 427       0.25000000
  4 428  4 658  4 427       0.25000000