BEGIN griddata
  strt  LAYERED
    INTERNAL  FACTOR  1.0
         596.66313370     596.72876251     596.77262190     596.46129314     596.55851437     596.69599771     596.76318395     596.20055445     596.38332145     596.46729059     596.51757252     596.29052094     596.40395765     596.28195342     596.37607729     595.26711437  1.00000000E+30  1.00000000E+30     595.98808471     590.00094779
         591.06361080     592.66933656  1.00000000E+30  1.00000000E+30     595.78718524     595.25748543     594.87791831     585.08458558     586.78952568  1.00000000E+30  1.00000000E+30  1.00000000E+30     593.94678409  1.00000000E+30  1.00000000E+30     594.90958342  1.00000000E+30  1.00000000E+30  1.00000000E+30     573.07089214
      1.00000000E+30     581.73319255     583.92885106     586.00751008  1.00000000E+30  1.00000000E+30  1.00000000E+30  1.00000000E+30  1.00000000E+30  1.00000000E+30     594.45067748  1.00000000E+30  1.00000000E+30  1.00000000E+30  1.00000000E+30  1.00000000E+30  1.00000000E+30  1.00000000E+30  1.00000000E+30  1.00000000E+30
      1.00000000E+30  1.00000000E+30  1.00000000E+30     585.11441676  1.00000000E+30  1.00000000E+30  1.00000000E+30  1.00000000E+30  1.00000000E+30     592.43322338  1.00000000E+30  1.00000000E+30  1.00000000E+30  1.00000000E+30  1.00000000E+30  1.00000000E+30  1.00000000E+30  1.00000000E+30  1.00000000E+30  1.00000000E+30
      1.00000000E+30  1.00000000E+30  1.00000000E+30  1.00000000E+30  1.00000000E+30  1.00000000E+30  1.00000000E+30  1.00000000E+30  1.00000000E+30  1.00000000E+30  1.00000000E+30  1.00000000E+30  1.00000000E+30  1.00000000E+30  1.00000000E+30     589.76043138     590.31696454     590.57231544  1.00000000E+30  1.00000000E+30
      1.00000000E+30  1.00000000E+30  1.00000000E+30  1.00000000E+30  1.00000000E+30  1.00000000E+30  1.00000000E+30  1.00000000E+30  1.00000000E+30     570.11581455  1.00000000E+30  1.00000000E+30     571.51290003  1.00000000E+30  1.00000000E+30  1.00000000E+30  1.00000000E+30  1.00000000E+30  1.00000000E+30  1.00000000E+30
      1.00000000E+30  1.00000000E+30  1.00000000E+30  1.00000000E+30  1.00000000E+30  1.00000000E+30  1.00000000E+30  1.00000000E+30  1.00000000E+30  1.00000000E+30  1.00000000E+30  1.00000000E+30  1.00000000E+30  1.00000000E+30  1.00000000E+30  1.00000000E+30  1.00000000E+30  1.00000000E+30  1.00000000E+30  1.00000000E+30
      1.00000000E+30  1.00000000E+30  1.00000000E+30  1.00000000E+30  1.00000000E+30  1.00000000E+30  1.00000000E+30  1.00000000E+30  1.00000000E+30  1.00000000E+30  1.00000000E+30  1.00000000E+30  1.00000000E+30  1.00000000E+30  1.00000000E+30  1.00000000E+30  1.00000000E+30  1.00000000E+30  1.00000000E+30  1.00000000E+30
         588.32985364     588.87071724  1.00000000E+30  1.00000000E+30  1.00000000E+30  1.00000000E+30  1.00000000E+30  1.00000000E+30  1.00000000E+30  1.00000000E+30  1.00000000E+30  1.00000000E+30  1.00000000E+30  1.00000000E+30  1.00000000E+30  1.00000000E+30  1.00000000E+30  1.00000000E+30  1.00000000E+30  1.00000000E+30
      1.00000000E+30  1.00000000E+30  1.00000000E+30  1.00000000E+30  1.00000000E+30  1.00000000E+30  1.00000000E+30  1.00000000E+30  1.00000000E+30  1.00000000E+30  1.00000000E+30  1.00000000E+30  1.00000000E+30  1.00000000E+30  1.00000000E+30  1.00000000E+30  1.00000000E+30  1.00000000E+30  1.00000000E+30  1.00000000E+30
      1.00000000E+30  1.00000000E+30  1.00000000E+30  1.00000000E+30  1.00000000E+30  1.00000000E+30  1.00000000E+30  1.00000000E+30  1.00000000E+30  1.00000000E+30  1.00000000E+30  1.00000000E+30  1.00000000E+30  1.00000000E+30  1.00000000E+30  1.00000000E+30  1.00000000E+30  1.00000000E+30  1.00000000E+30  1.00000000E+30
      1.00000000E+30  1.00000000E+30  1.00000000E+30  1.00000000E+30  1.00000000E+30     575.05637189  1.00000000E+30  1.00000000E+30  1.00000000E+30  1.00000000E+30  1.00000000E+30  1.00000000E+30  1.00000000E+30  1.00000000E+30     573.28117102  1.00000000E+30     577.25750956  1.00000000E+30  1.00000000E+30  1.00000000E+30
      1.00000000E+30  1.00000000E+30  1.00000000E+30  1.00000000E+30  1.00000000E+30  1.00000000E+30  1.00000000E+30  1.00000000E+30  1.00000000E+30  1.00000000E+30  1.00000000E+30  1.00000000E+30  1.00000000E+30  1.00000000E+30  1.00000000E+30  1.00000000E+30  1.00000000E+30  1.00000000E+30  1.00000000E+30  1.00000000E+30
      1.00000000E+30  1.00000000E+30  1.00000000E+30  1.00000000E+30  1.00000000E+30     583.06168871  1.00000000E+30     581.82842074  1.00000000E+30  1.00000000E+30  1.00000000E+30  1.00000000E+30  1.00000000E+30     546.43189300  1.00000000E+30  1.00000000E+30  1.00000000E+30  1.00000000E+30  1.00000000E+30  1.00000000E+30
      1.00000000E+30  1.00000000E+30  1.00000000E+30  1.00000000E+30  1.00000000E+30  1.00000000E+30  1.00000000E+30  1.00000000E+30  1.00000000E+30  1.00000000E+30  1.00000000E+30  1.00000000E+30  1.00000000E+30  1.00000000E+30  1.00000000E+30  1.00000000E+30  1.00000000E+30  1.00000000E+30  1.00000000E+30  1.00000000E+30
      1.00000000E+30  1.00000000E+30  1.00000000E+30  1.00000000E+30  1.00000000E+30  1.00000000E+30  1.00000000E+30  1.00000000E+30  1.00000000E+30  1.00000000E+30  1.00000000E+30  1.00000000E+30  1.00000000E+30  1.00000000E+30  1.00000000E+30  1.00000000E+30  1.00000000E+30  1.00000000E+30  1.00000000E+30  1.00000000E+30
      1.00000000E+30  1.00000000E+30  1.00000000E+30  1.00000000E+30  1.00000000E+30  1.00000000E+30  1.00000000E+30  1.00000000E+30  1.00000000E+30  1.00000000E+30  1.00000000E+30  1.00000000E+30  1.00000000E+30  1.00000000E+30  1.00000000E+30  1.00000000E+30  1.00000000E+30  1.00000000E+30  1.00000000E+30  1.00000000E+30
      1.00000000E+30  1.00000000E+30  1.00000000E+30  1.00000000E+30  1.00000000E+30  1.00000000E+30  1.00000000E+30  1.00000000E+30  1.00000000E+30  1.00000000E+30  1.00000000E+30  1.00000000E+30  1.00000000E+30  1.00000000E+30  1.00000000E+30  1.00000000E+30  1.00000000E+30  1.00000000E+30  1.00000000E+30  1.00000000E+30
      1.00000000E+30  1.00000000E+30  1.00000000E+30  1.00000000E+30  1.00000000E+30  1.00000000E+30  1.00000000E+30  1.00000000E+30  1.00000000E+30  1.00000000E+30  1.00000000E+30  1.00000000E+30  1.00000000E+30  1.00000000E+30  1.00000000E+30  1.00000000E+30  1.00000000E+30  1.00000000E+30  1.00000000E+30  1.00000000E+30
      1.00000000E+30  1.00000000E+30  1.00000000E+30  1.00000000E+30  1.00000000E+30  1.00000000E+30  1.00000000E+30  1.00000000E+30  1.00000000E+30  1.00000000E+30  1.00000000E+30  1.00000000E+30  1.00000000E+30  1.00000000E+30  1.00000000E+30  1.00000000E+30  1.00000000E+30  1.00000000E+30  1.00000000E+30  1.00000000E+30
      1.00000000E+30  1.00000000E+30  1.00000000E+30  1.00000000E+30  1.00000000E+30  1.00000000E+30  1.00000000E+30  1.00000000E+30  1.00000000E+30     583.52708472  1.00000000E+30     582.31510509  1.00000000E+30     584.70946995  1.00000000E+30  1.00000000E+30  1.00000000E+30  1.00000000E+30  1.00000000E+30  1.00000000E+30
      1.00000000E+30  1.00000000E+30  1.00000000E+30  1.00000000E+30  1.00000000E+30     546.09213690  1.00000000E+30  1.00000000E+30  1.00000000E+30  1.00000000E+30  1.00000000E+30  1.00000000E+30  1.00000000E+30  1.00000000E+30  1.00000000E+30  1.00000000E+30  1.00000000E+30  1.00000000E+30  1.00000000E+30  1.00000000E+30
      1.00000000E+30  1.00000000E+30  1.00000000E+30  1.00000000E+30  1.00000000E+30  1.00000000E+30  1.00000000E+30  1.00000000E+30  1.00000000E+30  1.00000000E+30  1.00000000E+30  1.00000000E+30  1.00000000E+30  1.00000000E+30  1.00000000E+30  1.00000000E+30  1.00000000E+30  1.00000000E+30  1.00000000E+30  1.00000000E+30
      1.00000000E+30  1.00000000E+30  1.00000000E+30  1.00000000E+30  1.00000000E+30  1.00000000E+30  1.00000000E+30  1.00000000E+30  1.00000000E+30  1.00000000E+30  1.00000000E+30  1.00000000E+30  1.00000000E+30  1.00000000E+30  1.00000000E+30  1.00000000E+30  1.00000000E+30  1.00000000E+30  1.00000000E+30  1.00000000E+30
      1.00000000E+30  1.00000000E+30  1.00000000E+30  1.00000000E+30  1.00000000E+30  1.00000000E+30  1.00000000E+30  1.00000000E+30  1.00000000E+30  1.00000000E+30  1.00000000E+30  1.00000000E+30  1.00000000E+30  1.00000000E+30  1.00000000E+30  1.00000000E+30  1.00000000E+30  1.00000000E+30  1.00000000E+30  1.00000000E+30
      1.00000000E+30  1.00000000E+30  1.00000000E+30  1.00000000E+30  1.00000000E+30  1.00000000E+30  1.00000000E+30  1.00000000E+30  1.00000000E+30  1.00000000E+30  1.00000000E+30  1.00000000E+30  1.00000000E+30  1.00000000E+30  1.00000000E+30  1.00000000E+30  1.00000000E+30  1.00000000E+30  1.00000000E+30  1.00000000E+30
      1.00000000E+30  1.00000000E+30  1.00000000E+30  1.00000000E+30  1.00000000E+30  1.00000000E+30  1.00000000E+30  1.00000000E+30  1.00000000E+30  1.00000000E+30  1.00000000E+30  1.00000000E+30  1.00000000E+30  1.00000000E+30  1.00000000E+30  1.00000000E+30  1.00000000E+30  1.00000000E+30  1.00000000E+30  1.00000000E+30
      1.00000000E+30  1.00000000E+30  1.00000000E+30  1.00000000E+30  1.00000000E+30  1.00000000E+30  1.00000000E+30  1.00000000E+30  1.00000000E+30  1.00000000E+30  1.00000000E+30  1.00000000E+30  1.00000000E+30  1.00000000E+30  1.00000000E+30  1.00000000E+30  1.00000000E+30     574.12107678  1.00000000E+30  1.00000000E+30
      1.00000000E+30  1.00000000E+30  1.00000000E+30  1.00000000E+30  1.00000000E+30  1.00000000E+30  1.00000000E+30  1.00000000E+30  1.00000000E+30  1.00000000E+30     574.95060918  1.00000000E+30  1.00000000E+30  1.00000000E+30     576.89345495  1.00000000E+30  1.00000000E+30     575.55960812  1.00000000E+30  1.00000000E+30
      1.00000000E+30  1.00000000E+30  1.00000000E+30     577.12057195  1.00000000E+30  1.00000000E+30  1.00000000E+30  1.00000000E+30  1.00000000E+30  1.00000000E+30     579.46450350     580.05979271  1.00000000E+30     578.57510059  1.00000000E+30     578.21929121     579.09660942  1.00000000E+30     578.89281834  1.00000000E+30
         580.63895188     581.23037424  1.00000000E+30     580.65614385     581.66987944  1.00000000E+30  1.00000000E+30  1.00000000E+30  1.00000000E+30  1.00000000E+30  1.00000000E+30  1.00000000E+30  1.00000000E+30  1.00000000E+30  1.00000000E+30  1.00000000E+30  1.00000000E+30  1.00000000E+30  1.00000000E+30  1.00000000E+30
      1.00000000E+30  1.00000000E+30  1.00000000E+30  1.00000000E+30  1.00000000E+30  1.00000000E+30  1.00000000E+30  1.00000000E+30  1.00000000E+30  1.00000000E+30  1.00000000E+30  1.00000000E+30  1.00000000E+30  1.00000000E+30  1.00000000E+30  1.00000000E+30  1.00000000E+30  1.00000000E+30  1.00000000E+30  1.00000000E+30
      1.00000000E+30  1.00000000E+30  1.00000000E+30  1.00000000E+30  1.00000000E+30  1.00000000E+30  1.00000000E+30  1.00000000E+30  1.00000000E+30  1.00000000E+30  1.00000000E+30  1.00000000E+30  1.00000000E+30  1.00000000E+30  1.00000000E+30  1.00000000E+30  1.00000000E+30  1.00000000E+30  1.00000000E+30  1.00000000E+30
      1.00000000E+30  1.00000000E+30  1.00000000E+30  1.00000000E+30  1.00000000E+30  1.00000000E+30  1.00000000E+30  1.00000000E+30  1.00000000E+30     544.10085316     544.43960638  1.00000000E+30  1.00000000E+30  1.00000000E+30  1.00000000E+30  1.00000000E+30  1.00000000E+30  1.00000000E+30  1.00000000E+30  1.00000000E+30
      1.00000000E+30  1.00000000E+30  1.00000000E+30  1.00000000E+30  1.00000000E+30  1.00000000E+30  1.00000000E+30  1.00000000E+30  1.00000000E+30  1.00000000E+30  1.00000000E+30  1.00000000E+30  1.00000000E+30  1.00000000E+30  1.00000000E+30  1.00000000E+30  1.00000000E+30  1.00000000E+30  1.00000000E+30  1.00000000E+30
      1.00000000E+30  1.00000000E+30  1.00000000E+30  1.00000000E+30  1.00000000E+30  1.00000000E+30  1.00000000E+30  1.00000000E+30  1.00000000E+30  1.00000000E+30  1.00000000E+30  1.00000000E+30  1.00000000E+30  1.00000000E+30  1.00000000E+30  1.00000000E+30  1.00000000E+30  1.00000000E+30  1.00000000E+30  1.00000000E+30
      1.00000000E+30  1.00000000E+30  1.00000000E+30  1.00000000E+30  1.00000000E+30  1.00000000E+30  1.00000000E+30  1.00000000E+30  1.00000000E+30  1.00000000E+30  1.00000000E+30  1.00000000E+30  1.00000000E+30  1.00000000E+30  1.00000000E+30  1.00000000E+30  1.00000000E+30  1.00000000E+30  1.00000000E+30  1.00000000E+30
      1.00000000E+30  1.00000000E+30  1.00000000E+30  1.00000000E+30  1.00000000E+30  1.00000000E+30  1.00000000E+30  1.00000000E+30  1.00000000E+30  1.00000000E+30  1.00000000E+30  1.00000000E+30  1.00000000E+30  1.00000000E+30  1.00000000E+30  1.00000000E+30  1.00000000E+30  1.00000000E+30  1.00000000E+30  1.00000000E+30
      1.00000000E+30  1.00000000E+30  1.00000000E+30  1.00000000E+30  1.00000000E+30  1.00000000E+30  1.00000000E+30  1.00000000E+30  1.00000000E+30  1.00000000E+30  1.00000000E+30  1.00000000E+30  1.00000000E+30  1.00000000E+30  1.00000000E+30  1.00000000E+30  1.00000000E+30  1.00000000E+30  1.00000000E+30  1.00000000E+30
      1.00000000E+30  1.00000000E+30  1.00000000E+30  1.00000000E+30  1.00000000E+30  1.00000000E+30  1.00000000E+30  1.00000000E+30  1.00000000E+30  1.00000000E+30  1.00000000E+30  1.00000000E+30  1.00000000E+30  1.00000000E+30  1.00000000E+30  1.00000000E+30  1.00000000E+30  1.00000000E+30  1.00000000E+30  1.00000000E+30
      1.00000000E+30  1.00000000E+30  1.00000000E+30  1.00000000E+30  1.00000000E+30  1.00000000E+30  1.00000000E+30  1.00000000E+30  1.00000000E+30  1.00000000E+30  1.00000000E+30  1.00000000E+30  1.00000000E+30  1.00000000E+30  1.00000000E+30  1.00000000E+30  1.00000000E+30  1.00000000E+30  1.00000000E+30  1.00000000E+30
      1.00000000E+30  1.00000000E+30  1.00000000E+30  1.00000000E+30  1.00000000E+30  1.00000000E+30  1.00000000E+30  1.00000000E+30  1.00000000E+30  1.00000000E+30  1.00000000E+30  1.00000000E+30  1.00000000E+30  1.00000000E+30  1.00000000E+30  1.00000000E+30  1.00000000E+30  1.00000000E+30  1.00000000E+30  1.00000000E+30
      1.00000000E+30  1.00000000E+30  1.00000000E+30  1.00000000E+30  1.00000000E+30  1.00000000E+30  1.00000000E+30  1.00000000E+30  1.00000000E+30  1.00000000E+30  1.00000000E+30  1.00000000E+30  1.00000000E+30  1.00000000E+30  1.00000000E+30  1.00000000E+30  1.00000000E+30  1.00000000E+30  1.00000000E+30  1.00000000E+30
      1.00000000E+30  1.00000000E+30  1.00000000E+30  1.00000000E+30  1.00000000E+30  1.00000000E+30  1.00000000E+30  1.00000000E+30  1.00000000E+30  1.00000000E+30  1.00000000E+30  1.00000000E+30  1.00000000E+30  1.00000000E+30  1.00000000E+30  1.00000000E+30  1.00000000E+30  1.00000000E+30  1.00000000E+30  1.00000000E+30
      1.00000000E+30  1.00000000E+30  1.00000000E+30  1.00000000E+30  1.00000000E+30  1.00000000E+30  1.00000000E+30  1.00000000E+30  1.00000000E+30  1.00000000E+30  1.00000000E+30  1.00000000E+30  1.00000000E+30  1.00000000E+30  1.00000000E+30  1.00000000E+30  1.00000000E+30  1.00000000E+30  1.00000000E+30  1.00000000E+30
      1.00000000E+30  1.00000000E+30  1.00000000E+30  1.00000000E+30  1.00000000E+30  1.00000000E+30  1.00000000E+30  1.00000000E+30  1.00000000E+30  1.00000000E+30  1.00000000E+30  1.00000000E+30  1.00000000E+30  1.00000000E+30  1.00000000E+30  1.00000000E+30  1.00000000E+30  1.00000000E+30  1.00000000E+30  1.00000000E+30
      1.00000000E+30  1.00000000E+30  1.00000000E+30  1.00000000E+30  1.00000000E+30  1.00000000E+30  1.00000000E+30  1.00000000E+30  1.00000000E+30  1.00000000E+30  1.00000000E+30  1.00000000E+30  1.00000000E+30  1.00000000E+30  1.00000000E+30  1.00000000E+30  1.00000000E+30  1.00000000E+30  1.00000000E+30  1.00000000E+30
         576.86562658  1.00000000E+30  1.00000000E+30  1.00000000E+30  1.00000000E+30  1.00000000E+30  1.00000000E+30  1.00000000E+30  1.00000000E+30  1.00000000E+30  1.00000000E+30  1.00000000E+30     578.10434278  1.00000000E+30  1.00000000E+30     578.81326700  1.00000000E+30  1.00000000E+30  1.00000000E+30  1.00000000E+30
      1.00000000E+30  1.00000000E+30  1.00000000E+30  1.00000000E+30  1.00000000E+30  1.00000000E+30  1.00000000E+30  1.00000000E+30  1.00000000E+30  1.00000000E+30  1.00000000E+30  1.00000000E+30  1.00000000E+30  1.00000000E+30     535.70480454     534.44935336  1.00000000E+30  1.00000000E+30  1.00000000E+30  1.00000000E+30
      1.00000000E+30  1.00000000E+30     535.88055586     536.04762595  1.00000000E+30  1.00000000E+30  1.00000000E+30  1.00000000E+30  1.00000000E+30  1.00000000E+30  1.00000000E+30  1.00000000E+30  1.00000000E+30  1.00000000E+30  1.00000000E+30  1.00000000E+30  1.00000000E+30  1.00000000E+30  1.00000000E+30  1.00000000E+30
      1.00000000E+30  1.00000000E+30  1.00000000E+30  1.00000000E+30  1.00000000E+30  1.00000000E+30  1.00000000E+30  1.00000000E+30  1.00000000E+30  1.00000000E+30  1.00000000E+30  1.00000000E+30  1.00000000E+30  1.00000000E+30  1.00000000E+30  1.00000000E+30  1.00000000E+30  1.00000000E+30  1.00000000E+30  1.00000000E+30
      1.00000000E+30  1.00000000E+30  1.00000000E+30  1.00000000E+30  1.00000000E+30  1.00000000E+30  1.00000000E+30  1.00000000E+30  1.00000000E+30  1.00000000E+30  1.00000000E+30  1.00000000E+30  1.00000000E+30  1.00000000E+30  1.00000000E+30  1.00000000E+30  1.00000000E+30  1.00000000E+30  1.00000000E+30  1.00000000E+30
      1.00000000E+30  1.00000000E+30  1.00000000E+30  1.00000000E+30  1.00000000E+30  1.00000000E+30  1.00000000E+30  1.00000000E+30  1.00000000E+30  1.00000000E+30  1.00000000E+30  1.00000000E+30  1.00000000E+30  1.00000000E+30  1.00000000E+30  1.00000000E+30  1.00000000E+30  1.00000000E+30  1.00000000E+30  1.00000000E+30
      1.00000000E+30  1.00000000E+30  1.00000000E+30  1.00000000E+30  1.00000000E+30  1.00000000E+30  1.00000000E+30  1.00000000E+30  1.00000000E+30  1.00000000E+30  1.00000000E+30  1.00000000E+30  1.00000000E+30  1.00000000E+30  1.00000000E+30  1.00000000E+30  1.00000000E+30  1.00000000E+30  1.00000000E+30  1.00000000E+30
      1.00000000E+30  1.00000000E+30  1.00000000E+30  1.00000000E+30  1.00000000E+30  1.00000000E+30  1.00000000E+30  1.00000000E+30  1.00000000E+30  1.00000000E+30  1.00000000E+30  1.00000000E+30  1.00000000E+30  1.00000000E+30  1.00000000E+30  1.00000000E+30  1.00000000E+30  1.00000000E+30  1.00000000E+30  1.00000000E+30
      1.00000000E+30  1.00000000E+30  1.00000000E+30  1.00000000E+30  1.00000000E+30  1.00000000E+30  1.00000000E+30  1.00000000E+30  1.00000000E+30  1.00000000E+30  1.00000000E+30  1.00000000E+30  1.00000000E+30  1.00000000E+30  1.00000000E+30  1.00000000E+30  1.00000000E+30  1.00000000E+30  1.00000000E+30  1.00000000E+30
      1.00000000E+30  1.00000000E+30  1.00000000E+30  1.00000000E+30  1.00000000E+30  1.00000000E+30  1.00000000E+30  1.00000000E+30  1.00000000E+30  1.00000000E+30  1.00000000E+30  1.00000000E+30  1.00000000E+30  1.00000000E+30  1.00000000E+30  1.00000000E+30  1.00000000E+30  1.00000000E+30  1.00000000E+30  1.00000000E+30
      1.00000000E+30  1.00000000E+30  1.00000000E+30  1.00000000E+30  1.00000000E+30  1.00000000E+30  1.00000000E+30  1.00000000E+30  1.00000000E+30  1.00000000E+30  1.00000000E+30  1.00000000E+30  1.00000000E+30  1.00000000E+30  1.00000000E+30  1.00000000E+30  1.00000000E+30  1.00000000E+30  1.00000000E+30  1.00000000E+30
      1.00000000E+30  1.00000000E+30  1.00000000E+30  1.00000000E+30  1.00000000E+30  1.00000000E+30  1.00000000E+30  1.00000000E+30  1.00000000E+30  1.00000000E+30  1.00000000E+30  1.00000000E+30  1.00000000E+30  1.00000000E+30  1.00000000E+30  1.00000000E+30  1.00000000E+30  1.00000000E+30  1.00000000E+30  1.00000000E+30
      1.00000000E+30  1.00000000E+30  1.00000000E+30  1.00000000E+30  1.00000000E+30  1.00000000E+30  1.00000000E+30  1.00000000E+30  1.00000000E+30  1.00000000E+30  1.00000000E+30  1.00000000E+30  1.00000000E+30  1.00000000E+30  1.00000000E+30  1.00000000E+30  1.00000000E+30  1.00000000E+30  1.00000000E+30  1.00000000E+30
      1.00000000E+30  1.00000000E+30  1.00000000E+30  1.00000000E+30  1.00000000E+30  1.00000000E+30  1.00000000E+30  1.00000000E+30  1.00000000E+30  1.00000000E+30  1.00000000E+30  1.00000000E+30  1.00000000E+30  1.00000000E+30  1.00000000E+30  1.00000000E+30  1.00000000E+30  1.00000000E+30  1.00000000E+30  1.00000000E+30
      1.00000000E+30  1.00000000E+30  1.00000000E+30  1.00000000E+30  1.00000000E+30  1.00000000E+30  1.00000000E+30  1.00000000E+30  1.00000000E+30  1.00000000E+30  1.00000000E+30  1.00000000E+30  1.00000000E+30  1.00000000E+30  1.00000000E+30  1.00000000E+30  1.00000000E+30  1.00000000E+30  1.00000000E+30  1.00000000E+30
      1.00000000E+30  1.00000000E+30  1.00000000E+30  1.00000000E+30  1.00000000E+30  1.00000000E+30  1.00000000E+30  1.00000000E+30  1.00000000E+30  1.00000000E+30  1.00000000E+30  1.00000000E+30  1.00000000E+30  1.00000000E+30  1.00000000E+30  1.00000000E+30  1.00000000E+30  1.00000000E+30  1.00000000E+30  1.00000000E+30
      1.00000000E+30  1.00000000E+30  1.00000000E+30  1.00000000E+30  1.00000000E+30  1.00000000E+30  1.00000000E+30  1.00000000E+30  1.00000000E+30  1.00000000E+30  1.00000000E+30  1.00000000E+30  1.00000000E+30  1.00000000E+30  1.00000000E+30  1.00000000E+30  1.00000000E+30  1.00000000E+30  1.00000000E+30  1.00000000E+30
      1.00000000E+30  1.00000000E+30  1.00000000E+30  1.00000000E+30  1.00000000E+30  1.00000000E+30  1.00000000E+30  1.00000000E+30  1.00000000E+30  1.00000000E+30  1.00000000E+30  1.00000000E+30  1.00000000E+30  1.00000000E+30  1.00000000E+30  1.00000000E+30  1.00000000E+30  1.00000000E+30  1.00000000E+30  1.00000000E+30
      1.00000000E+30  1.00000000E+30  1.00000000E+30  1.00000000E+30  1.00000000E+30  1.00000000E+30  1.00000000E+30  1.00000000E+30  1.00000000E+30  1.00000000E+30  1.00000000E+30  1.00000000E+30  1.00000000E+30  1.00000000E+30  1.00000000E+30  1.00000000E+30  1.00000000E+30  1.00000000E+30  1.00000000E+30  1.00000000E+30
      1.00000000E+30  1.00000000E+30  1.00000000E+30  1.00000000E+30  1.00000000E+30     570.06006749  1.00000000E+30     569.49664909  1.00000000E+30  1.00000000E+30  1.00000000E+30  1.00000000E+30  1.00000000E+30  1.00000000E+30  1.00000000E+30  1.00000000E+30  1.00000000E+30  1.00000000E+30  1.00000000E+30  1.00000000E+30
      1.00000000E+30  1.00000000E+30  1.00000000E+30  1.00000000E+30  1.00000000E+30  1.00000000E+30  1.00000000E+30  1.00000000E+30  1.00000000E+30  1.00000000E+30  1.00000000E+30  1.00000000E+30  1.00000000E+30  1.00000000E+30  1.00000000E+30  1.00000000E+30  1.00000000E+30  1.00000000E+30  1.00000000E+30  1.00000000E+30
      1.00000000E+30  1.00000000E+30  1.00000000E+30     577.87520341     578.17985619  1.00000000E+30  1.00000000E+30  1.00000000E+30  1.00000000E+30  1.00000000E+30  1.00000000E+30  1.00000000E+30  1.00000000E+30     532.25159728  1.00000000E+30  1.00000000E+30     532.42058381  1.00000000E+30  1.00000000E+30  1.00000000E+30
      1.00000000E+30  1.00000000E+30  1.00000000E+30  1.00000000E+30  1.00000000E+30  1.00000000E+30  1.00000000E+30  1.00000000E+30  1.00000000E+30  1.00000000E+30  1.00000000E+30  1.00000000E+30  1.00000000E+30  1.00000000E+30  1.00000000E+30  1.00000000E+30  1.00000000E+30  1.00000000E+30  1.00000000E+30  1.00000000E+30
      1.00000000E+30  1.00000000E+30  1.00000000E+30  1.00000000E+30  1.00000000E+30  1.00000000E+30  1.00000000E+30  1.00000000E+30  1.00000000E+30  1.00000000E+30  1.00000000E+30  1.00000000E+30  1.00000000E+30  1.00000000E+30  1.00000000E+30  1.00000000E+30  1.00000000E+30  1.00000000E+30  1.00000000E+30  1.00000000E+30
      1.00000000E+30  1.00000000E+30  1.00000000E+30  1.00000000E+30  1.00000000E+30  1.00000000E+30  1.00000000E+30  1.00000000E+30  1.00000000E+30  1.00000000E+30  1.00000000E+30  1.00000000E+30  1.00000000E+30  1.00000000E+30  1.00000000E+30  1.00000000E+30  1.00000000E+30  1.00000000E+30  1.00000000E+30  1.00000000E+30
      1.00000000E+30  1.00000000E+30  1.00000000E+30  1.00000000E+30  1.00000000E+30  1.00000000E+30  1.00000000E+30  1.00000000E+30  1.00000000E+30  1.00000000E+30  1.00000000E+30  1.00000000E+30  1.00000000E+30  1.00000000E+30     538.16766930  1.00000000E+30  1.00000000E+30  1.00000000E+30  1.00000000E+30  1.00000000E+30
      1.00000000E+30  1.00000000E+30  1.00000000E+30  1.00000000E+30  1.00000000E+30  1.00000000E+30  1.00000000E+30  1.00000000E+30  1.00000000E+30  1.00000000E+30  1.00000000E+30  1.00000000E+30  1.00000000E+30  1.00000000E+30  1.00000000E+30  1.00000000E+30  1.00000000E+30  1.00000000E+30  1.00000000E+30  1.00000000E+30
      1.00000000E+30  1.00000000E+30  1.00000000E+30  1.00000000E+30  1.00000000E+30  1.00000000E+30  1.00000000E+30  1.00000000E+30  1.00000000E+30  1.00000000E+30  1.00000000E+30  1.00000000E+30  1.00000000E+30  1.00000000E+30  1.00000000E+30  1.00000000E+30  1.00000000E+30  1.00000000E+30  1.00000000E+30  1.00000000E+30
      1.00000000E+30  1.00000000E+30  1.00000000E+30  1.00000000E+30  1.00000000E+30  1.00000000E+30  1.00000000E+30  1.00000000E+30  1.00000000E+30  1.00000000E+30  1.00000000E+30  1.00000000E+30  1.00000000E+30  1.00000000E+30  1.00000000E+30  1.00000000E+30  1.00000000E+30  1.00000000E+30  1.00000000E+30  1.00000000E+30
      1.00000000E+30  1.00000000E+30  1.00000000E+30  1.00000000E+30  1.00000000E+30  1.00000000E+30  1.00000000E+30  1.00000000E+30  1.00000000E+30  1.00000000E+30  1.00000000E+30  1.00000000E+30  1.00000000E+30  1.00000000E+30  1.00000000E+30  1.00000000E+30  1.00000000E+30  1.00000000E+30  1.00000000E+30  1.00000000E+30
      1.00000000E+30  1.00000000E+30  1.00000000E+30  1.00000000E+30  1.00000000E+30  1.00000000E+30  1.00000000E+30  1.00000000E+30  1.00000000E+30  1.00000000E+30  1.00000000E+30  1.00000000E+30  1.00000000E+30  1.00000000E+30  1.00000000E+30  1.00000000E+30  1.00000000E+30  1.00000000E+30  1.00000000E+30  1.00000000E+30
      1.00000000E+30  1.00000000E+30  1.00000000E+30  1.00000000E+30  1.00000000E+30  1.00000000E+30  1.00000000E+30  1.00000000E+30  1.00000000E+30  1.00000000E+30  1.00000000E+30  1.00000000E+30  1.00000000E+30  1.00000000E+30  1.00000000E+30  1.00000000E+30  1.00000000E+30  1.00000000E+30  1.00000000E+30  1.00000000E+30
      1.00000000E+30  1.00000000E+30  1.00000000E+30  1.00000000E+30  1.00000000E+30  1.00000000E+30  1.00000000E+30  1.00000000E+30  1.00000000E+30  1.00000000E+30  1.00000000E+30  1.00000000E+30  1.00000000E+30  1.00000000E+30  1.00000000E+30  1.00000000E+30  1.00000000E+30  1.00000000E+30  1.00000000E+30  1.00000000E+30
      1.00000000E+30  1.00000000E+30  1.00000000E+30  1.00000000E+30  1.00000000E+30  1.00000000E+30  1.00000000E+30  1.00000000E+30  1.00000000E+30  1.00000000E+30  1.00000000E+30  1.00000000E+30  1.00000000E+30  1.00000000E+30  1.00000000E+30  1.00000000E+30  1.00000000E+30  1.00000000E+30  1.00000000E+30  1.00000000E+30
      1.00000000E+30  1.00000000E+30  1.00000000E+30  1.00000000E+30  1.00000000E+30  1.00000000E+30  1.00000000E+30  1.00000000E+30  1.00000000E+30  1.00000000E+30  1.00000000E+30  1.00000000E+30  1.00000000E+30  1.00000000E+30  1.00000000E+30  1.00000000E+30  1.00000000E+30  1.00000000E+30  1.00000000E+30  1.00000000E+30
      1.00000000E+30  1.00000000E+30  1.00000000E+30  1.00000000E+30  1.00000000E+30  1.00000000E+30  1.00000000E+30  1.00000000E+30  1.00000000E+30  1.00000000E+30  1.00000000E+30  1.00000000E+30  1.00000000E+30  1.00000000E+30  1.00000000E+30  1.00000000E+30  1.00000000E+30  1.00000000E+30  1.00000000E+30  1.00000000E+30
      1.00000000E+30  1.00000000E+30  1.00000000E+30  1.00000000E+30  1.00000000E+30  1.00000000E+30  1.00000000E+30  1.00000000E+30  1.00000000E+30  1.00000000E+30  1.00000000E+30  1.00000000E+30  1.00000000E+30  1.00000000E+30  1.00000000E+30  1.00000000E+30  1.00000000E+30  1.00000000E+30  1.00000000E+30  1.00000000E+30
      1.00000000E+30  1.00000000E+30  1.00000000E+30  1.00000000E+30  1.00000000E+30  1.00000000E+30  1.00000000E+30  1.00000000E+30  1.00000000E+30  1.00000000E+30  1.00000000E+30  1.00000000E+30  1.00000000E+30  1.00000000E+30  1.00000000E+30  1.00000000E+30  1.00000000E+30  1.00000000E+30  1.00000000E+30  1.00000000E+30
      1.00000000E+30  1.00000000E+30  1.00000000E+30  1.00000000E+30  1.00000000E+30  1.00000000E+30  1.00000000E+30  1.00000000E+30  1.00000000E+30  1.00000000E+30  1.00000000E+30  1.00000000E+30  1.00000000E+30  1.00000000E+30  1.00000000E+30  1.00000000E+30  1.00000000E+30  1.00000000E+30  1.00000000E+30  1.00000000E+30
      1.00000000E+30  1.00000000E+30  1.00000000E+30  1.00000000E+30  1.00000000E+30  1.00000000E+30  1.00000000E+30  1.00000000E+30  1.00000000E+30  1.00000000E+30  1.00000000E+30  1.00000000E+30  1.00000000E+30  1.00000000E+30  1.00000000E+30  1.00000000E+30  1.00000000E+30  1.00000000E+30  1.00000000E+30  1.00000000E+30
      1.00000000E+30  1.00000000E+30  1.00000000E+30  1.00000000E+30  1.00000000E+30  1.00000000E+30     569.19712694     570.67108556  1.00000000E+30     570.13300531  1.00000000E+30  1.00000000E+30  1.00000000E+30  1.00000000E+30     568.13276696     569.29748584  1.00000000E+30     568.78997229  1.00000000E+30  1.00000000E+30
      1.00000000E+30  1.00000000E+30  1.00000000E+30  1.00000000E+30  1.00000000E+30  1.00000000E+30     570.75203821  1.00000000E+30     570.04241514     571.24058948  1.00000000E+30  1.00000000E+30     576.47674653     574.65629172  1.00000000E+30  1.00000000E+30     577.48942174  1.00000000E+30  1.00000000E+30  1.00000000E+30
      1.00000000E+30  1.00000000E+30  1.00000000E+30  1.00000000E+30  1.00000000E+30  1.00000000E+30  1.00000000E+30  1.00000000E+30  1.00000000E+30  1.00000000E+30  1.00000000E+30  1.00000000E+30  1.00000000E+30  1.00000000E+30  1.00000000E+30  1.00000000E+30  1.00000000E+30  1.00000000E+30  1.00000000E+30  1.00000000E+30
      1.00000000E+30  1.00000000E+30  1.00000000E+30  1.00000000E+30  1.00000000E+30  1.00000000E+30  1.00000000E+30  1.00000000E+30  1.00000000E+30  1.00000000E+30  1.00000000E+30  1.00000000E+30  1.00000000E+30  1.00000000E+30  1.00000000E+30  1.00000000E+30  1.00000000E+30  1.00000000E+30  1.00000000E+30  1.00000000E+30