BEGIN options
  BOUNDNAMES
  SAVE_FLOWS
  OBS6  FILEIN  DC_MF6.drn.obs
END options

BEGIN dimensions
  MAXBOUND  5
END dimensions

BEGIN period  1
  6 9725      391.00000000   10000.00000000  finegan
  6 11566     391.00000000   10000.00000000  ud704
  6 11603     391.00000000   10000.00000000  ud703
  6 11185     405.00000000    1000.00000000  dolan
  6 11799     405.00000000    1000.00000000  ud701
END period  1

