BEGIN options
  BOUNDNAMES
  SAVE_FLOWS
  OBS6  FILEIN  DC_MF6.riv.obs
END options

BEGIN dimensions
  MAXBOUND  105
END dimensions

BEGIN period  1
  6 9628     391.40000000       0.01354167     391.00000000  devils_river
  6 9643     391.40000000       0.01354167     391.00000000  devils_river
  6 10632     391.40000000       0.01354167     391.00000000  devils_river
  6 10633     391.40000000       0.01354167     391.00000000  devils_river
  6 10634     391.40000000       0.01354167     391.00000000  devils_river
  6 10636     391.40000000       0.01354167     391.00000000  devils_river
  6 10637     391.40000000       0.01354167     391.00000000  devils_river
  6 10640     391.40000000       0.01354167     391.00000000  devils_river
  6 10641     391.40000000       0.01354167     391.00000000  devils_river
  6 10644     391.40000000       0.01354167     391.00000000  devils_river
  6 10645     391.40000000       0.01354167     391.00000000  devils_river
  6 10648     391.40000000       0.01354167     391.00000000  devils_river
  6 10649     391.40000000       0.01354167     391.00000000  devils_river
  6 10652     391.40000000       0.01354167     391.00000000  devils_river
  6 10653     391.40000000       0.01354167     391.00000000  devils_river
  6 10656     391.40000000       0.01354167     391.00000000  devils_river
  6 10657     391.40000000       0.01354167     391.00000000  devils_river
  6 10660     391.40000000       0.01354167     391.00000000  devils_river
  6 10661     391.40000000       0.01354167     391.00000000  devils_river
  6 10670     391.40000000       0.00677083     391.00000000  devils_river
  6 10671     391.40000000       0.00677083     391.00000000  devils_river
  6 10672     391.40000000       0.00677083     391.00000000  devils_river
  6 10673     391.40000000       0.00677083     391.00000000  devils_river
  6 10682     391.40000000       0.00677083     391.00000000  devils_river
  6 10683     391.40000000       0.00677083     391.00000000  devils_river
  6 10684     391.40000000       0.00677083     391.00000000  devils_river
  6 10685     391.40000000       0.00677083     391.00000000  devils_river
  6 10686     391.40000000       0.00677083     391.00000000  devils_river
  6 10688     391.40000000       0.00677083     391.00000000  devils_river
  6 10689     391.40000000       0.00677083     391.00000000  devils_river
  6 10701     391.40000000       0.00677083     391.00000000  devils_river
  6 10702     391.40000000       0.00677083     391.00000000  devils_river
  6 10705     391.40000000       0.00677083     391.00000000  devils_river
  6 10723     391.39999999       0.00677083     391.00000000  devils_river
  6 10724     391.40000000       0.00677083     391.00000000  devils_river
  6 10727     391.40000000       0.00677083     391.00000000  devils_river
  6 10728     391.40000000       0.00677083     391.00000000  devils_river
  6 10730     391.40000000       0.00677083     391.00000000  devils_river
  6 10735     391.40000000       0.00677083     391.00000000  devils_river
  6 10737     391.40000000       0.00677083     391.00000000  devils_river
  6 10738     391.40000000       0.00677083     391.00000000  devils_river
  6 10743     391.40000000       0.00677083     391.00000000  devils_river
  6 10744     391.40000000       0.00677083     391.00000000  devils_river
  6 10747     391.40000000       0.00677083     391.00000000  devils_river
  6 10749     391.39999999       0.00677083     391.00000000  devils_river
  6 10750     391.40000000       0.00677083     391.00000000  devils_river
  6 10754     391.40000000       0.00677083     391.00000000  devils_river
  6 10755     391.40000000       0.00677083     391.00000000  devils_river
  6 10757     391.40000000       0.00677083     391.00000000  devils_river
  6 10893     391.40000000       0.00677083     391.00000000  devils_river
  6 10895     391.40000000       0.00677083     391.00000000  devils_river
  6 10896     391.40000000       0.00677083     391.00000000  devils_river
  6 10901     391.40000000       0.00677083     391.00000000  devils_river
  6 10902     391.40000000       0.00677083     391.00000000  devils_river
  6 10903     391.40000000       0.00677083     391.00000000  devils_river
  6 10904     391.40000000       0.00677083     391.00000000  devils_river
  6 10926     391.40000000       0.00677083     391.00000000  devils_river
  6 10928     391.40000000       0.00677083     391.00000000  devils_river
  6 10929     391.40000000       0.00677083     391.00000000  devils_river
  6 10931     391.40000000       0.00677083     391.00000000  devils_river
  6 10934     391.40000000       0.00677083     391.00000000  devils_river
  6 10937     391.40000000       0.00677083     391.00000000  devils_river
  6 10939     391.40000000       0.00677083     391.00000000  devils_river
  6 10940     391.40000000       0.00677083     391.00000000  devils_river
  6 11518     391.40000000       0.00677083     391.00000000  devils_river
  6 11519     391.40000000       0.00677083     391.00000000  devils_river
  6 11521     391.40000000       0.00677083     391.00000000  devils_river
  6 11523     391.40000000       0.00677083     391.00000000  devils_river
  6 11525     391.40000000       0.00677083     391.00000000  devils_river
  6 11528     391.40000000       0.00677083     391.00000000  devils_river
  6 11534     391.40000000       0.00677083     391.00000000  devils_river
  6 11536     391.40000000       0.00677083     391.00000000  devils_river
  6 11537     391.40000000       0.00677083     391.00000000  devils_river
  6 11546     391.40000000       0.00677083     391.00000000  devils_river
  6 11547     391.40000000       0.00677083     391.00000000  devils_river
  6 11548     391.40000000       0.00677083     391.00000000  devils_river
  6 11549     391.40000000       0.00677083     391.00000000  devils_river
  6 11552     391.40000000       0.00677083     391.00000000  devils_river
  6 11555     391.40000000       0.00677083     391.00000000  devils_river
  6 11557     391.40000000       0.00677083     391.00000000  devils_river
  6 11558     391.40000000       0.00677083     391.00000000  devils_river
  6 11560     391.40000000       0.00677083     391.00000000  devils_river
  6 11629     391.40000000       0.00677083     391.00000000  devils_river
  6 11630     391.40000000       0.00677083     391.00000000  devils_river
  6 11631     391.40000000       0.00677083     391.00000000  devils_river
  6 11632     391.40000000       0.00677083     391.00000000  devils_river
  6 11636     391.40000000       0.00677083     391.00000000  devils_river
  6 11638     391.40000000       0.00677083     391.00000000  devils_river
  6 11641     391.40000000       0.00677083     391.00000000  devils_river
  6 11643     391.40000000       0.00677083     391.00000000  devils_river
  6 11645     391.40000000       0.00677083     391.00000000  devils_river
  6 11647     391.40000000       0.00677083     391.00000000  devils_river
  6 11658     391.40000000       0.00677083     391.00000000  devils_river
  6 11680     391.40000000       0.00677083     391.00000000  devils_river
  6 11682     391.40000000       0.00677083     391.00000000  devils_river
  6 11688     391.40000000       0.00677083     391.00000000  devils_river
  6 11690     391.40000000       0.00677083     391.00000000  devils_river
  6 12251     391.40000000       0.00677083     391.00000000  devils_river
  6 12253     391.40000000       0.00677083     391.00000000  devils_river
  6 12255     391.40000000       0.00677083     391.00000000  devils_river
  6 12256     391.40000000       0.00677083     391.00000000  devils_river
  6 12257     391.39999999       0.00677083     391.00000000  devils_river
  6 12259     391.40000000       0.00677083     391.00000000  devils_river
  6 12265     391.40000000       0.00677083     391.00000000  devils_river
  6 12267     391.40000000       0.00677083     391.00000000  devils_river
END period  1

