# File generated by Flopy version 3.3.5 on 12/08/2022 at 08:52:02.
BEGIN options
  TIME_UNITS  days
  START_DATE_TIME  2015-01-01
END options

BEGIN dimensions
  NPER  84
END dimensions

BEGIN perioddata
      31.00000000  31       1.00000000
      28.00000000  28       1.00000000
      31.00000000  31       1.00000000
      30.00000000  30       1.00000000
      31.00000000  31       1.00000000
      30.00000000  30       1.00000000
      31.00000000  31       1.00000000
      31.00000000  31       1.00000000
      30.00000000  30       1.00000000
      31.00000000  31       1.00000000
      30.00000000  30       1.00000000
      31.00000000  31       1.00000000
      31.00000000  31       1.00000000
      29.00000000  29       1.00000000
      31.00000000  31       1.00000000
      30.00000000  30       1.00000000
      31.00000000  31       1.00000000
      30.00000000  30       1.00000000
      31.00000000  31       1.00000000
      31.00000000  31       1.00000000
      30.00000000  30       1.00000000
      31.00000000  31       1.00000000
      30.00000000  30       1.00000000
      31.00000000  31       1.00000000
      31.00000000  31       1.00000000
      28.00000000  28       1.00000000
      31.00000000  31       1.00000000
      30.00000000  30       1.00000000
      31.00000000  31       1.00000000
      30.00000000  30       1.00000000
      31.00000000  31       1.00000000
      31.00000000  31       1.00000000
      30.00000000  30       1.00000000
      31.00000000  31       1.00000000
      30.00000000  30       1.00000000
      31.00000000  31       1.00000000
      31.00000000  31       1.00000000
      28.00000000  28       1.00000000
      31.00000000  31       1.00000000
      30.00000000  30       1.00000000
      31.00000000  31       1.00000000
      30.00000000  30       1.00000000
      31.00000000  31       1.00000000
      31.00000000  31       1.00000000
      30.00000000  30       1.00000000
      31.00000000  31       1.00000000
      30.00000000  30       1.00000000
      31.00000000  31       1.00000000
      31.00000000  31       1.00000000
      28.00000000  28       1.00000000
      31.00000000  31       1.00000000
      30.00000000  30       1.00000000
      31.00000000  31       1.00000000
      30.00000000  30       1.00000000
      31.00000000  31       1.00000000
      31.00000000  31       1.00000000
      30.00000000  30       1.00000000
      31.00000000  31       1.00000000
      30.00000000  30       1.00000000
      31.00000000  31       1.00000000
      31.00000000  31       1.00000000
      29.00000000  29       1.00000000
      31.00000000  31       1.00000000
      30.00000000  30       1.00000000
      31.00000000  31       1.00000000
      30.00000000  30       1.00000000
      31.00000000  31       1.00000000
      31.00000000  31       1.00000000
      30.00000000  30       1.00000000
      31.00000000  31       1.00000000
      30.00000000  30       1.00000000
      31.00000000  31       1.00000000
      31.00000000  31       1.00000000
      28.00000000  28       1.00000000
      31.00000000  31       1.00000000
      30.00000000  30       1.00000000
      31.00000000  31       1.00000000
      30.00000000  30       1.00000000
      31.00000000  31       1.00000000
      31.00000000  31       1.00000000
      30.00000000  30       1.00000000
      31.00000000  31       1.00000000
      30.00000000  30       1.00000000
      31.00000000  31       1.00000000
END perioddata

