# File generated by Flopy version 3.3.5 on 01/10/2023 at 13:47:36.
BEGIN options
  BOUNDNAMES
  SAVE_FLOWS
  OBS6  FILEIN  MF6TBraat_cp.drn.obs
END options

BEGIN dimensions
  MAXBOUND  446
END dimensions

BEGIN period  1
  13 53527     250.00000000      47.02730000  little_park_spring
  14 56925     239.00000000      54.17930000  park_spring
  14 63773     235.00000000     499.91300000  pvs
  15 110079     190.00000000       3.12248000  fern_bank_springs
  14 93467     211.00000000       9.17954000  blanco_river_fb
  10 5620     359.00000000       0.72923300  cold_spring
  9 3216     365.00000000      21.48690000  blanco_river_spring
  9 1821     368.00000000      14.07340000  zercher_spring
  8 1098     400.00000000       6.26385000  crabapple_creek_spring
  14 89965     211.00000000       0.35124100  cypress_creek_spring
  13 75575     240.50000000     233.38100000  jws
  14 75575     230.00000000     233.38100000  jws
  12 20739     285.00000000      19.14820000  c-3_hays
  12 20483     285.00000000       1.40434000  c-5_hays
  12 18039     285.00000000       1.89609000  a-15_hays
  14 29838     239.00000000       0.10000000  barton_creek_springs
  13 43780     241.00000000      16.66750000  dripping_springs
  17 129487     120.80000000   10000.00000000  sms
  17 129489     120.80000000   10000.00000000  sms
  17 129506     120.80000000   10000.00000000  sms
  17 129508     120.80000000   10000.00000000  sms
  17 129509     120.80000000   10000.00000000  sms
  17 129517     120.80000000   10000.00000000  sms
  17 129552     120.80000000   10000.00000000  sms
  17 129553     120.80000000   10000.00000000  sms
  17 129556     120.80000000   10000.00000000  sms
  17 129557     120.80000000   10000.00000000  sms
  17 129560     120.80000000   10000.00000000  sms
  17 129561     120.80000000   10000.00000000  sms
  17 129564     120.80000000   10000.00000000  sms
  17 129570     120.80000000   10000.00000000  sms
  17 129571     120.80000000   10000.00000000  sms
  17 129572     120.80000000   10000.00000000  sms
  17 129573     120.80000000   10000.00000000  sms
  17 129574     120.80000000   10000.00000000  sms
  17 129720     120.80000000   10000.00000000  sms
  17 129721     120.80000000   10000.00000000  sms
  17 129722     120.80000000   10000.00000000  sms
  17 129724     120.80000000   10000.00000000  sms
  17 129742     120.80000000   10000.00000000  sms
  17 129743     120.80000000   10000.00000000  sms
  17 129532     120.80000000   10000.00000000  sms
  17 129551     120.80000000   10000.00000000  sms
  17 129554     120.80000000   10000.00000000  sms
  17 129746     120.80000000   10000.00000000  sms
  17 129468     120.80000000   10000.00000000  sms
  17 129490     120.80000000   10000.00000000  sms
  17 129469     120.80000000   10000.00000000  sms
  17 129491     120.80000000   10000.00000000  sms
  17 129480     120.80000000   10000.00000000  sms
  17 129502     120.80000000   10000.00000000  sms
  17 129481     120.80000000   10000.00000000  sms
  17 129503     120.80000000   10000.00000000  sms
  17 129505     120.80000000   10000.00000000  sms
  17 129484     120.80000000   10000.00000000  sms
  17 129485     120.80000000   10000.00000000  sms
  17 129528     120.80000000   10000.00000000  sms
  17 129529     120.80000000   10000.00000000  sms
  17 129514     120.80000000   10000.00000000  sms
  17 129515     120.80000000   10000.00000000  sms
  17 129558     120.80000000   10000.00000000  sms
  17 129559     120.80000000   10000.00000000  sms
  17 129562     120.80000000   10000.00000000  sms
  17 129563     120.80000000   10000.00000000  sms
  17 129568     120.80000000   10000.00000000  sms
  17 129569     120.80000000   10000.00000000  sms
  17 129312     120.80000000   10000.00000000  sms
  17 129313     120.80000000   10000.00000000  sms
  17 129314     120.80000000   10000.00000000  sms
  17 129315     120.80000000   10000.00000000  sms
  17 129465     120.80000000   10000.00000000  sms
  17 129466     120.80000000   10000.00000000  sms
  17 129467     120.80000000   10000.00000000  sms
  17 129478     120.80000000   10000.00000000  sms
  17 129479     120.80000000   10000.00000000  sms
  17 129482     120.80000000   10000.00000000  sms
  17 129483     120.80000000   10000.00000000  sms
  17 129486     120.80000000   10000.00000000  sms
  17 129507     120.80000000   10000.00000000  sms
  17 129526     120.80000000   10000.00000000  sms
  17 129527     120.80000000   10000.00000000  sms
  17 129530     120.80000000   10000.00000000  sms
  17 129533     120.80000000   10000.00000000  sms
  17 129548     120.80000000   10000.00000000  sms
  17 129549     120.80000000   10000.00000000  sms
  17 129550     120.80000000   10000.00000000  sms
  17 129555     120.80000000   10000.00000000  sms
  17 129566     120.80000000   10000.00000000  sms
  17 129567     120.80000000   10000.00000000  sms
  17 129716     120.80000000   10000.00000000  sms
  17 129718     120.80000000   10000.00000000  sms
  17 129719     120.80000000   10000.00000000  sms
  17 129280     123.00000000   10000.00000000  sms
  17 129281     123.00000000   10000.00000000  sms
  17 129284     123.00000000   10000.00000000  sms
  17 129285     123.00000000   10000.00000000  sms
  17 129286     123.00000000   10000.00000000  sms
  17 129287     123.00000000   10000.00000000  sms
  17 129288     123.00000000   10000.00000000  sms
  17 129289     123.00000000   10000.00000000  sms
  17 129290     123.00000000   10000.00000000  sms
  17 129291     123.00000000   10000.00000000  sms
  17 129292     123.00000000   10000.00000000  sms
  17 129293     123.00000000   10000.00000000  sms
  17 129310     123.00000000   10000.00000000  sms
  17 129311     123.00000000   10000.00000000  sms
  17 129321     123.00000000   10000.00000000  sms
  17 129324     123.00000000   10000.00000000  sms
  17 129325     123.00000000   10000.00000000  sms
  17 129456     123.00000000   10000.00000000  sms
  17 129457     123.00000000   10000.00000000  sms
  17 129460     123.00000000   10000.00000000  sms
  17 129461     123.00000000   10000.00000000  sms
  17 129462     123.00000000   10000.00000000  sms
  17 129463     123.00000000   10000.00000000  sms
  17 129464     123.00000000   10000.00000000  sms
  17 129472     123.00000000   10000.00000000  sms
  17 129473     123.00000000   10000.00000000  sms
  17 129476     123.00000000   10000.00000000  sms
  17 129477     123.00000000   10000.00000000  sms
  17 129492     123.00000000   10000.00000000  sms
  17 129493     123.00000000   10000.00000000  sms
  17 129495     123.00000000   10000.00000000  sms
  17 129496     123.00000000   10000.00000000  sms
  17 129497     123.00000000   10000.00000000  sms
  17 129498     123.00000000   10000.00000000  sms
  17 129499     123.00000000   10000.00000000  sms
  17 129500     123.00000000   10000.00000000  sms
  17 129501     123.00000000   10000.00000000  sms
  17 129504     123.00000000   10000.00000000  sms
  17 129510     123.00000000   10000.00000000  sms
  17 129511     123.00000000   10000.00000000  sms
  17 129512     123.00000000   10000.00000000  sms
  17 129513     123.00000000   10000.00000000  sms
  17 129516     123.00000000   10000.00000000  sms
  17 129520     123.00000000   10000.00000000  sms
  17 129521     123.00000000   10000.00000000  sms
  17 129524     123.00000000   10000.00000000  sms
  17 129525     123.00000000   10000.00000000  sms
  17 129531     123.00000000   10000.00000000  sms
  17 129536     123.00000000   10000.00000000  sms
  17 129537     123.00000000   10000.00000000  sms
  17 129540     123.00000000   10000.00000000  sms
  17 129541     123.00000000   10000.00000000  sms
  17 129542     123.00000000   10000.00000000  sms
  17 129543     123.00000000   10000.00000000  sms
  17 129544     123.00000000   10000.00000000  sms
  17 129545     123.00000000   10000.00000000  sms
  17 129546     123.00000000   10000.00000000  sms
  17 129547     123.00000000   10000.00000000  sms
  17 129565     123.00000000   10000.00000000  sms
  17 129575     123.00000000   10000.00000000  sms
  17 129576     123.00000000   10000.00000000  sms
  17 129577     123.00000000   10000.00000000  sms
  17 129578     123.00000000   10000.00000000  sms
  17 129579     123.00000000   10000.00000000  sms
  17 129580     123.00000000   10000.00000000  sms
  17 129581     123.00000000   10000.00000000  sms
  17 129712     123.00000000   10000.00000000  sms
  17 129713     123.00000000   10000.00000000  sms
  17 129717     123.00000000   10000.00000000  sms
  17 129723     123.00000000   10000.00000000  sms
  17 129725     123.00000000   10000.00000000  sms
  17 129744     123.00000000   10000.00000000  sms
  17 129745     123.00000000   10000.00000000  sms
  17 129747     123.00000000   10000.00000000  sms
  17 129748     123.00000000   10000.00000000  sms
  17 129749     123.00000000   10000.00000000  sms
  17 129750     123.00000000   10000.00000000  sms
  17 129751     123.00000000   10000.00000000  sms
  17 129752     123.00000000   10000.00000000  sms
  17 129753     123.00000000   10000.00000000  sms
  17 129754     123.00000000   10000.00000000  sms
  17 129755     123.00000000   10000.00000000  sms
  17 129756     123.00000000   10000.00000000  sms
  17 129757     123.00000000   10000.00000000  sms
  17 129178     128.00000000   10000.00000000  sms
  17 129179     128.00000000   10000.00000000  sms
  17 129180     128.00000000   10000.00000000  sms
  17 129181     128.00000000   10000.00000000  sms
  17 129190     128.00000000   10000.00000000  sms
  17 129191     128.00000000   10000.00000000  sms
  17 129192     128.00000000   10000.00000000  sms
  17 129193     128.00000000   10000.00000000  sms
  17 129194     128.00000000   10000.00000000  sms
  17 129195     128.00000000   10000.00000000  sms
  17 129196     128.00000000   10000.00000000  sms
  17 129197     128.00000000   10000.00000000  sms
  17 129266     128.00000000   10000.00000000  sms
  17 129267     128.00000000   10000.00000000  sms
  17 129268     128.00000000   10000.00000000  sms
  17 129269     128.00000000   10000.00000000  sms
  17 129274     128.00000000   10000.00000000  sms
  17 129275     128.00000000   10000.00000000  sms
  17 129276     128.00000000   10000.00000000  sms
  17 129277     128.00000000   10000.00000000  sms
  17 129278     128.00000000   10000.00000000  sms
  17 129279     128.00000000   10000.00000000  sms
  17 129282     128.00000000   10000.00000000  sms
  17 129283     128.00000000   10000.00000000  sms
  17 129298     128.00000000   10000.00000000  sms
  17 129299     128.00000000   10000.00000000  sms
  17 129300     128.00000000   10000.00000000  sms
  17 129301     128.00000000   10000.00000000  sms
  17 129306     128.00000000   10000.00000000  sms
  17 129307     128.00000000   10000.00000000  sms
  17 129308     128.00000000   10000.00000000  sms
  17 129309     128.00000000   10000.00000000  sms
  17 129366     128.00000000   10000.00000000  sms
  17 129367     128.00000000   10000.00000000  sms
  17 129368     128.00000000   10000.00000000  sms
  17 129369     128.00000000   10000.00000000  sms
  17 129370     128.00000000   10000.00000000  sms
  17 129371     128.00000000   10000.00000000  sms
  17 129372     128.00000000   10000.00000000  sms
  17 129373     128.00000000   10000.00000000  sms
  17 129376     128.00000000   10000.00000000  sms
  17 129377     128.00000000   10000.00000000  sms
  17 129380     128.00000000   10000.00000000  sms
  17 129382     128.00000000   10000.00000000  sms
  17 129383     128.00000000   10000.00000000  sms
  17 129384     128.00000000   10000.00000000  sms
  17 129385     128.00000000   10000.00000000  sms
  17 129386     128.00000000   10000.00000000  sms
  17 129387     128.00000000   10000.00000000  sms
  17 129388     128.00000000   10000.00000000  sms
  17 129389     128.00000000   10000.00000000  sms
  17 129430     128.00000000   10000.00000000  sms
  17 129431     128.00000000   10000.00000000  sms
  17 129432     128.00000000   10000.00000000  sms
  17 129433     128.00000000   10000.00000000  sms
  17 129434     128.00000000   10000.00000000  sms
  17 129435     128.00000000   10000.00000000  sms
  17 129436     128.00000000   10000.00000000  sms
  17 129437     128.00000000   10000.00000000  sms
  17 129446     128.00000000   10000.00000000  sms
  17 129447     128.00000000   10000.00000000  sms
  17 129448     128.00000000   10000.00000000  sms
  17 129449     128.00000000   10000.00000000  sms
  17 129450     128.00000000   10000.00000000  sms
  17 129451     128.00000000   10000.00000000  sms
  17 129452     128.00000000   10000.00000000  sms
  17 129453     128.00000000   10000.00000000  sms
  17 129454     128.00000000   10000.00000000  sms
  17 129455     128.00000000   10000.00000000  sms
  17 129458     128.00000000   10000.00000000  sms
  17 129459     128.00000000   10000.00000000  sms
  17 129470     128.00000000   10000.00000000  sms
  17 129471     128.00000000   10000.00000000  sms
  17 129474     128.00000000   10000.00000000  sms
  17 129475     128.00000000   10000.00000000  sms
  17 129518     128.00000000   10000.00000000  sms
  17 129519     128.00000000   10000.00000000  sms
  17 129522     128.00000000   10000.00000000  sms
  17 129523     128.00000000   10000.00000000  sms
  17 129534     128.00000000   10000.00000000  sms
  17 129535     128.00000000   10000.00000000  sms
  17 129538     128.00000000   10000.00000000  sms
  17 129539     128.00000000   10000.00000000  sms
  17 129622     128.00000000   10000.00000000  sms
  17 129623     128.00000000   10000.00000000  sms
  17 129624     128.00000000   10000.00000000  sms
  17 129625     128.00000000   10000.00000000  sms
  17 129626     128.00000000   10000.00000000  sms
  17 129628     128.00000000   10000.00000000  sms
  17 129629     128.00000000   10000.00000000  sms
  17 129640     128.00000000   10000.00000000  sms
  17 129641     128.00000000   10000.00000000  sms
  17 129710     128.00000000   10000.00000000  sms
  17 129711     128.00000000   10000.00000000  sms
  17 129714     128.00000000   10000.00000000  sms
  17 129715     128.00000000   10000.00000000  sms
  17 129726     128.00000000   10000.00000000  sms
  17 129727     128.00000000   10000.00000000  sms
  17 129728     128.00000000   10000.00000000  sms
  17 129729     128.00000000   10000.00000000  sms
  17 129734     128.00000000   10000.00000000  sms
  17 129735     128.00000000   10000.00000000  sms
  17 129736     128.00000000   10000.00000000  sms
  17 129737     128.00000000   10000.00000000  sms
  17 129758     128.00000000   10000.00000000  sms
  17 129759     128.00000000   10000.00000000  sms
  17 129760     128.00000000   10000.00000000  sms
  17 129761     128.00000000   10000.00000000  sms
  17 129766     128.00000000   10000.00000000  sms
  17 129767     128.00000000   10000.00000000  sms
  17 129768     128.00000000   10000.00000000  sms
  17 129769     128.00000000   10000.00000000  sms
  17 131706     128.00000000   10000.00000000  sms
  17 131877     128.00000000   10000.00000000  sms
  17 131878     128.00000000   10000.00000000  sms
  17 131881     128.00000000   10000.00000000  sms
  17 131882     128.00000000   10000.00000000  sms
  17 131893     128.00000000   10000.00000000  sms
  17 131894     128.00000000   10000.00000000  sms
  17 129114     135.00000000   10000.00000000  sms
  17 129115     135.00000000   10000.00000000  sms
  17 129116     135.00000000   10000.00000000  sms
  17 129117     135.00000000   10000.00000000  sms
  17 129126     135.00000000   10000.00000000  sms
  17 129127     135.00000000   10000.00000000  sms
  17 129128     135.00000000   10000.00000000  sms
  17 129129     135.00000000   10000.00000000  sms
  17 129130     135.00000000   10000.00000000  sms
  17 129131     135.00000000   10000.00000000  sms
  17 129132     135.00000000   10000.00000000  sms
  17 129133     135.00000000   10000.00000000  sms
  17 129174     135.00000000   10000.00000000  sms
  17 129175     135.00000000   10000.00000000  sms
  17 129176     135.00000000   10000.00000000  sms
  17 129177     135.00000000   10000.00000000  sms
  17 129202     135.00000000   10000.00000000  sms
  17 129203     135.00000000   10000.00000000  sms
  17 129204     135.00000000   10000.00000000  sms
  17 129205     135.00000000   10000.00000000  sms
  17 129210     135.00000000   10000.00000000  sms
  17 129211     135.00000000   10000.00000000  sms
  17 129212     135.00000000   10000.00000000  sms
  17 129213     135.00000000   10000.00000000  sms
  17 129214     135.00000000   10000.00000000  sms
  17 129215     135.00000000   10000.00000000  sms
  17 129216     135.00000000   10000.00000000  sms
  17 129217     135.00000000   10000.00000000  sms
  17 129218     135.00000000   10000.00000000  sms
  17 129219     135.00000000   10000.00000000  sms
  17 129220     135.00000000   10000.00000000  sms
  17 129221     135.00000000   10000.00000000  sms
  17 129222     135.00000000   10000.00000000  sms
  17 129223     135.00000000   10000.00000000  sms
  17 129224     135.00000000   10000.00000000  sms
  17 129225     135.00000000   10000.00000000  sms
  17 129226     135.00000000   10000.00000000  sms
  17 129227     135.00000000   10000.00000000  sms
  17 129228     135.00000000   10000.00000000  sms
  17 129229     135.00000000   10000.00000000  sms
  17 129234     135.00000000   10000.00000000  sms
  17 129235     135.00000000   10000.00000000  sms
  17 129236     135.00000000   10000.00000000  sms
  17 129237     135.00000000   10000.00000000  sms
  17 129242     135.00000000   10000.00000000  sms
  17 129243     135.00000000   10000.00000000  sms
  17 129244     135.00000000   10000.00000000  sms
  17 129245     135.00000000   10000.00000000  sms
  17 129246     135.00000000   10000.00000000  sms
  17 129247     135.00000000   10000.00000000  sms
  17 129248     135.00000000   10000.00000000  sms
  17 129249     135.00000000   10000.00000000  sms
  17 129250     135.00000000   10000.00000000  sms
  17 129251     135.00000000   10000.00000000  sms
  17 129252     135.00000000   10000.00000000  sms
  17 129253     135.00000000   10000.00000000  sms
  17 129254     135.00000000   10000.00000000  sms
  17 129255     135.00000000   10000.00000000  sms
  17 129256     135.00000000   10000.00000000  sms
  17 129257     135.00000000   10000.00000000  sms
  17 129258     135.00000000   10000.00000000  sms
  17 129259     135.00000000   10000.00000000  sms
  17 129260     135.00000000   10000.00000000  sms
  17 129261     135.00000000   10000.00000000  sms
  17 129262     135.00000000   10000.00000000  sms
  17 129263     135.00000000   10000.00000000  sms
  17 129264     135.00000000   10000.00000000  sms
  17 129265     135.00000000   10000.00000000  sms
  17 129270     135.00000000   10000.00000000  sms
  17 129271     135.00000000   10000.00000000  sms
  17 129272     135.00000000   10000.00000000  sms
  17 129273     135.00000000   10000.00000000  sms
  17 129294     135.00000000   10000.00000000  sms
  17 129295     135.00000000   10000.00000000  sms
  17 129296     135.00000000   10000.00000000  sms
  17 129297     135.00000000   10000.00000000  sms
  17 129302     135.00000000   10000.00000000  sms
  17 129303     135.00000000   10000.00000000  sms
  17 129304     135.00000000   10000.00000000  sms
  17 129305     135.00000000   10000.00000000  sms
  17 129644     135.00000000   10000.00000000  sms
  17 129645     135.00000000   10000.00000000  sms
  17 129688     135.00000000   10000.00000000  sms
  17 129689     135.00000000   10000.00000000  sms
  17 129692     135.00000000   10000.00000000  sms
  17 129693     135.00000000   10000.00000000  sms
  17 129702     135.00000000   10000.00000000  sms
  17 129704     135.00000000   10000.00000000  sms
  17 129730     135.00000000   10000.00000000  sms
  17 129731     135.00000000   10000.00000000  sms
  17 129732     135.00000000   10000.00000000  sms
  17 129733     135.00000000   10000.00000000  sms
  17 129738     135.00000000   10000.00000000  sms
  17 129739     135.00000000   10000.00000000  sms
  17 129740     135.00000000   10000.00000000  sms
  17 129741     135.00000000   10000.00000000  sms
  17 129762     135.00000000   10000.00000000  sms
  17 129763     135.00000000   10000.00000000  sms
  17 129764     135.00000000   10000.00000000  sms
  17 129765     135.00000000   10000.00000000  sms
  17 129770     135.00000000   10000.00000000  sms
  17 129771     135.00000000   10000.00000000  sms
  17 129772     135.00000000   10000.00000000  sms
  17 129773     135.00000000   10000.00000000  sms
  17 129774     135.00000000   10000.00000000  sms
  17 129775     135.00000000   10000.00000000  sms
  17 129776     135.00000000   10000.00000000  sms
  17 129777     135.00000000   10000.00000000  sms
  17 129778     135.00000000   10000.00000000  sms
  17 129779     135.00000000   10000.00000000  sms
  17 129780     135.00000000   10000.00000000  sms
  17 129781     135.00000000   10000.00000000  sms
  17 129782     135.00000000   10000.00000000  sms
  17 129783     135.00000000   10000.00000000  sms
  17 129784     135.00000000   10000.00000000  sms
  17 129785     135.00000000   10000.00000000  sms
  17 129786     135.00000000   10000.00000000  sms
  17 129787     135.00000000   10000.00000000  sms
  17 129788     135.00000000   10000.00000000  sms
  17 129789     135.00000000   10000.00000000  sms
  17 129790     135.00000000   10000.00000000  sms
  17 129792     135.00000000   10000.00000000  sms
  17 129798     135.00000000   10000.00000000  sms
  17 129800     135.00000000   10000.00000000  sms
  17 129806     135.00000000   10000.00000000  sms
  17 129807     135.00000000   10000.00000000  sms
  17 129808     135.00000000   10000.00000000  sms
  17 129809     135.00000000   10000.00000000  sms
  17 129810     135.00000000   10000.00000000  sms
  17 129811     135.00000000   10000.00000000  sms
  17 129812     135.00000000   10000.00000000  sms
  17 129813     135.00000000   10000.00000000  sms
  17 129814     135.00000000   10000.00000000  sms
  17 129815     135.00000000   10000.00000000  sms
  17 129816     135.00000000   10000.00000000  sms
  17 129817     135.00000000   10000.00000000  sms
  17 129818     135.00000000   10000.00000000  sms
  17 129819     135.00000000   10000.00000000  sms
  17 129820     135.00000000   10000.00000000  sms
  17 129821     135.00000000   10000.00000000  sms
  17 129822     135.00000000   10000.00000000  sms
  17 129824     135.00000000   10000.00000000  sms
  17 129830     135.00000000   10000.00000000  sms
  17 129832     135.00000000   10000.00000000  sms
  17 131897     135.00000000   10000.00000000  sms
  17 131898     135.00000000   10000.00000000  sms
  17 131941     135.00000000   10000.00000000  sms
  17 131942     135.00000000   10000.00000000  sms
  17 131945     135.00000000   10000.00000000  sms
  17 131946     135.00000000   10000.00000000  sms
  17 131957     135.00000000   10000.00000000  sms
END period  1

