# File generated by Flopy version 3.3.3 on 12/23/2021 at 10:13:02.
BEGIN options
  MEMORY_PRINT_OPTION  summary
END options

BEGIN timing
  TDIS6  MF6TBraat_cp.tdis
END timing

BEGIN models
  gwf6  MF6TBraat_cp.nam  MF6TBraat_cp
END models

BEGIN exchanges
END exchanges

BEGIN solutiongroup  1
  ims6  MF6TBraat_cp.ims  MF6TBraat_cp
END solutiongroup  1

